
OS:Version,
  {f5a572c4-bc93-485f-9f7c-6e1757924659}, !- Handle
  3.3.0;                                  !- Version Identifier

OS:Building,
  {000354a4-f1bd-4d88-a2ca-6d4fc6f9cf16}, !- Handle
  Building 1,                             !- Name
  ,                                       !- Building Sector Type
  0,                                      !- North Axis {deg}
  ,                                       !- Nominal Floor to Floor Height {m}
  ,                                       !- Space Type Name
  {a2147c8b-c929-4ad2-9390-ade03b725b90}, !- Default Construction Set Name
  ,                                       !- Default Schedule Set Name
  ,                                       !- Standards Number of Stories
  ,                                       !- Standards Number of Above Ground Stories
  ,                                       !- Standards Template
  MediumOffice;                           !- Standards Building Type

OS:Facility,
  {dac62b7f-359d-449d-a2cc-f3a8d283e6b2}; !- Handle

OS:Site,
  {af3175a1-35a2-4382-b77b-c5017b1ef5cb}, !- Handle
  Site 1,                                 !- Name
  ,                                       !- Latitude {deg}
  ,                                       !- Longitude {deg}
  ,                                       !- Time Zone {hr}
  ,                                       !- Elevation {m}
  City;                                   !- Terrain

OS:SimulationControl,
  {418f3894-6edc-4900-8e2f-6e5bc7373e00}, !- Handle
  Yes,                                    !- Do Zone Sizing Calculation
  Yes,                                    !- Do System Sizing Calculation
  Yes,                                    !- Do Plant Sizing Calculation
  No,                                     !- Run Simulation for Sizing Periods
  Yes,                                    !- Run Simulation for Weather File Run Periods
  ,                                       !- Loads Convergence Tolerance Value {W}
  ,                                       !- Temperature Convergence Tolerance Value {deltaC}
  FullExteriorWithReflections;            !- Solar Distribution

OS:Sizing:Parameters,
  {9095b7cd-6a56-481b-9c04-5a3bca1add9d}, !- Handle
  1.25,                                   !- Heating Sizing Factor
  1.15;                                   !- Cooling Sizing Factor

OS:Timestep,
  {8326ae19-5599-405a-a6f1-37bac1f029aa}, !- Handle
  6;                                      !- Number of Timesteps per Hour

OS:ShadowCalculation,
  {b0335cc9-b74e-48a5-a1b9-8f18bea9a54b}, !- Handle
  PolygonClipping,                        !- Shading Calculation Method
  Periodic,                               !- Shading Calculation Update Frequency Method
  30,                                     !- Shading Calculation Update Frequency
  15000,                                  !- Maximum Figures in Shadow Overlap Calculations
  ,                                       !- Polygon Clipping Algorithm
  512,                                    !- Pixel Counting Resolution
  ,                                       !- Sky Diffuse Modeling Algorithm
  No,                                     !- Output External Shading Calculation Results
  No,                                     !- Disable Self-Shading Within Shading Zone Groups
  No;                                     !- Disable Self-Shading From Shading Zone Groups to Other Zones

OS:HeatBalanceAlgorithm,
  {19d6f11c-5730-4835-8150-257d23a75709}, !- Handle
  ConductionTransferFunction,             !- Algorithm
  200;                                    !- Surface Temperature Upper Limit {C}

OS:RunPeriod,
  {80e5dd02-29b9-46fa-8d27-3da80a1d51be}, !- Handle
  Run Period 1,                           !- Name
  1,                                      !- Begin Month
  1,                                      !- Begin Day of Month
  12,                                     !- End Month
  31,                                     !- End Day of Month
  ,                                       !- Use Weather File Holidays and Special Days
  ,                                       !- Use Weather File Daylight Saving Period
  ,                                       !- Apply Weekend Holiday Rule
  ,                                       !- Use Weather File Rain Indicators
  ,                                       !- Use Weather File Snow Indicators
  ;                                       !- Number of Times Runperiod to be Repeated

OS:LifeCycleCost:Parameters,
  {141e7477-0822-4200-aabb-b99297a45ca9}, !- Handle
  ,                                       !- Analysis Type
  ,                                       !- Discounting Convention
  ,                                       !- Inflation Approach
  ,                                       !- Real Discount Rate
  ,                                       !- Nominal Discount Rate
  ,                                       !- Inflation
  ,                                       !- Base Date Month
  ,                                       !- Base Date Year
  ,                                       !- Service Date Month
  ,                                       !- Service Date Year
  ;                                       !- Length of Study Period in Years

OS:WeatherFile,
  {e92697e1-de45-4b24-99e8-29f14f797df2}, !- Handle
  Seattle Seattle Tacoma Intl A,          !- City
  WA,                                     !- State Province Region
  USA,                                    !- Country
  TMY3,                                   !- Data Source
  727930,                                 !- WMO Number
  47.47,                                  !- Latitude {deg}
  -122.32,                                !- Longitude {deg}
  -8,                                     !- Time Zone {hr}
  122,                                    !- Elevation {m}
  C:/Users/papep/Documents/GitHub/msdc-thesis/&#33tool/data/USA_WA_Seattle-Tacoma.Intl.AP.727930_TMY3.epw, !- Url
  92912389,                               !- Checksum
  ,                                       !- Start Date Actual Year
  Sunday;                                 !- Start Day of Week

OS:ScheduleTypeLimits,
  {7340cbf3-8ec9-4a55-ab64-307a2f7e4751}, !- Handle
  Temperature,                            !- Name
  -273.15,                                !- Lower Limit Value
  ,                                       !- Upper Limit Value
  Continuous,                             !- Numeric Type
  Temperature;                            !- Unit Type

OS:ScheduleTypeLimits,
  {a6c404ee-75a2-47da-9142-1c765ecaedf2}, !- Handle
  Activity Level,                         !- Name
  0,                                      !- Lower Limit Value
  ,                                       !- Upper Limit Value
  Continuous,                             !- Numeric Type
  ActivityLevel;                          !- Unit Type

OS:ScheduleTypeLimits,
  {7b3730c4-2316-4cec-8e00-7a06f32e39de}, !- Handle
  Fractional,                             !- Name
  0,                                      !- Lower Limit Value
  1,                                      !- Upper Limit Value
  Continuous,                             !- Numeric Type
  Dimensionless;                          !- Unit Type

OS:YearDescription,
  {586d91dc-2791-4e79-8aef-b93ccb068391}, !- Handle
  ,                                       !- Calendar Year
  Sunday,                                 !- Day of Week for Start Day
  No;                                     !- Is Leap Year

OS:Schedule:Ruleset,
  {c759f5eb-c63f-444e-ba25-5db09d119d07}, !- Handle
  ApartmentMidRise HTGSETP_APT_SCH,       !- Name
  {7340cbf3-8ec9-4a55-ab64-307a2f7e4751}, !- Schedule Type Limits Name
  {21b0deb9-d4e3-4fd5-9088-7323af6d7f20}, !- Default Day Schedule Name
  {2cee4ed1-68f9-46b2-a86c-1beb08501ed6}, !- Summer Design Day Schedule Name
  {ce5670b8-5aab-4c5d-9302-dd27c8eccde1}; !- Winter Design Day Schedule Name

OS:Schedule:Day,
  {21b0deb9-d4e3-4fd5-9088-7323af6d7f20}, !- Handle
  ApartmentMidRise HTGSETP_APT_SCH_Default, !- Name
  {7340cbf3-8ec9-4a55-ab64-307a2f7e4751}, !- Schedule Type Limits Name
  ,                                       !- Interpolate to Timestep
  24,                                     !- Hour 1
  0,                                      !- Minute 1
  21.7;                                   !- Value Until Time 1

OS:Schedule:Day,
  {453eb4e1-0594-42a6-b536-fb60fc4810e7}, !- Handle
  ApartmentMidRise HTGSETP_APT_SCH_SmrDsn, !- Name
  {7340cbf3-8ec9-4a55-ab64-307a2f7e4751}, !- Schedule Type Limits Name
  ,                                       !- Interpolate to Timestep
  24,                                     !- Hour 1
  0,                                      !- Minute 1
  21.7;                                   !- Value Until Time 1

OS:Schedule:Day,
  {d6b8dd8f-aadc-4e12-a174-73b5c5e8a6c0}, !- Handle
  ApartmentMidRise HTGSETP_APT_SCH_WntrDsn, !- Name
  {7340cbf3-8ec9-4a55-ab64-307a2f7e4751}, !- Schedule Type Limits Name
  ,                                       !- Interpolate to Timestep
  24,                                     !- Hour 1
  0,                                      !- Minute 1
  21.7;                                   !- Value Until Time 1

OS:Schedule:Day,
  {2cee4ed1-68f9-46b2-a86c-1beb08501ed6}, !- Handle
  ApartmentMidRise HTGSETP_APT_SCH_SmrDsn 1, !- Name
  {7340cbf3-8ec9-4a55-ab64-307a2f7e4751}, !- Schedule Type Limits Name
  ,                                       !- Interpolate to Timestep
  24,                                     !- Hour 1
  0,                                      !- Minute 1
  21.7;                                   !- Value Until Time 1

OS:Schedule:Day,
  {ce5670b8-5aab-4c5d-9302-dd27c8eccde1}, !- Handle
  ApartmentMidRise HTGSETP_APT_SCH_WntrDsn 1, !- Name
  {7340cbf3-8ec9-4a55-ab64-307a2f7e4751}, !- Schedule Type Limits Name
  ,                                       !- Interpolate to Timestep
  24,                                     !- Hour 1
  0,                                      !- Minute 1
  21.7;                                   !- Value Until Time 1

OS:Schedule:Ruleset,
  {268e96c1-80ee-4271-b28f-c762c4ee1c87}, !- Handle
  ApartmentMidRise OCC_APT_SCH,           !- Name
  {7b3730c4-2316-4cec-8e00-7a06f32e39de}, !- Schedule Type Limits Name
  {7a347d21-ac85-4050-b3fa-34b943b3f5b9}, !- Default Day Schedule Name
  {1e3ca8dd-0529-4594-b547-148f36c31b38}, !- Summer Design Day Schedule Name
  {46ce1485-fe23-4613-bfd5-f3083f26600b}; !- Winter Design Day Schedule Name

OS:Schedule:Day,
  {7a347d21-ac85-4050-b3fa-34b943b3f5b9}, !- Handle
  ApartmentMidRise OCC_APT_SCH_Default,   !- Name
  {7b3730c4-2316-4cec-8e00-7a06f32e39de}, !- Schedule Type Limits Name
  ,                                       !- Interpolate to Timestep
  7,                                      !- Hour 1
  0,                                      !- Minute 1
  1,                                      !- Value Until Time 1
  8,                                      !- Hour 2
  0,                                      !- Minute 2
  0.85,                                   !- Value Until Time 2
  9,                                      !- Hour 3
  0,                                      !- Minute 3
  0.39,                                   !- Value Until Time 3
  16,                                     !- Hour 4
  0,                                      !- Minute 4
  0.25,                                   !- Value Until Time 4
  17,                                     !- Hour 5
  0,                                      !- Minute 5
  0.3,                                    !- Value Until Time 5
  18,                                     !- Hour 6
  0,                                      !- Minute 6
  0.52,                                   !- Value Until Time 6
  21,                                     !- Hour 7
  0,                                      !- Minute 7
  0.87,                                   !- Value Until Time 7
  24,                                     !- Hour 8
  0,                                      !- Minute 8
  1;                                      !- Value Until Time 8

OS:Schedule:Day,
  {6a0dbd1c-8e37-4f5e-9686-eadde269ea32}, !- Handle
  ApartmentMidRise OCC_APT_SCH_SmrDsn,    !- Name
  {7b3730c4-2316-4cec-8e00-7a06f32e39de}, !- Schedule Type Limits Name
  ,                                       !- Interpolate to Timestep
  7,                                      !- Hour 1
  0,                                      !- Minute 1
  1,                                      !- Value Until Time 1
  8,                                      !- Hour 2
  0,                                      !- Minute 2
  0.85,                                   !- Value Until Time 2
  9,                                      !- Hour 3
  0,                                      !- Minute 3
  0.39,                                   !- Value Until Time 3
  16,                                     !- Hour 4
  0,                                      !- Minute 4
  0.25,                                   !- Value Until Time 4
  17,                                     !- Hour 5
  0,                                      !- Minute 5
  0.3,                                    !- Value Until Time 5
  18,                                     !- Hour 6
  0,                                      !- Minute 6
  0.52,                                   !- Value Until Time 6
  21,                                     !- Hour 7
  0,                                      !- Minute 7
  0.87,                                   !- Value Until Time 7
  24,                                     !- Hour 8
  0,                                      !- Minute 8
  1;                                      !- Value Until Time 8

OS:Schedule:Day,
  {6666509e-a6f5-4bc7-83f3-59065489b60a}, !- Handle
  ApartmentMidRise OCC_APT_SCH_WntrDsn,   !- Name
  {7b3730c4-2316-4cec-8e00-7a06f32e39de}, !- Schedule Type Limits Name
  ,                                       !- Interpolate to Timestep
  7,                                      !- Hour 1
  0,                                      !- Minute 1
  1,                                      !- Value Until Time 1
  8,                                      !- Hour 2
  0,                                      !- Minute 2
  0.85,                                   !- Value Until Time 2
  9,                                      !- Hour 3
  0,                                      !- Minute 3
  0.39,                                   !- Value Until Time 3
  16,                                     !- Hour 4
  0,                                      !- Minute 4
  0.25,                                   !- Value Until Time 4
  17,                                     !- Hour 5
  0,                                      !- Minute 5
  0.3,                                    !- Value Until Time 5
  18,                                     !- Hour 6
  0,                                      !- Minute 6
  0.52,                                   !- Value Until Time 6
  21,                                     !- Hour 7
  0,                                      !- Minute 7
  0.87,                                   !- Value Until Time 7
  24,                                     !- Hour 8
  0,                                      !- Minute 8
  1;                                      !- Value Until Time 8

OS:Schedule:Day,
  {1e3ca8dd-0529-4594-b547-148f36c31b38}, !- Handle
  ApartmentMidRise OCC_APT_SCH_SmrDsn 1,  !- Name
  {7b3730c4-2316-4cec-8e00-7a06f32e39de}, !- Schedule Type Limits Name
  ,                                       !- Interpolate to Timestep
  7,                                      !- Hour 1
  0,                                      !- Minute 1
  1,                                      !- Value Until Time 1
  8,                                      !- Hour 2
  0,                                      !- Minute 2
  0.85,                                   !- Value Until Time 2
  9,                                      !- Hour 3
  0,                                      !- Minute 3
  0.39,                                   !- Value Until Time 3
  16,                                     !- Hour 4
  0,                                      !- Minute 4
  0.25,                                   !- Value Until Time 4
  17,                                     !- Hour 5
  0,                                      !- Minute 5
  0.3,                                    !- Value Until Time 5
  18,                                     !- Hour 6
  0,                                      !- Minute 6
  0.52,                                   !- Value Until Time 6
  21,                                     !- Hour 7
  0,                                      !- Minute 7
  0.87,                                   !- Value Until Time 7
  24,                                     !- Hour 8
  0,                                      !- Minute 8
  1;                                      !- Value Until Time 8

OS:Schedule:Day,
  {46ce1485-fe23-4613-bfd5-f3083f26600b}, !- Handle
  ApartmentMidRise OCC_APT_SCH_WntrDsn 1, !- Name
  {7b3730c4-2316-4cec-8e00-7a06f32e39de}, !- Schedule Type Limits Name
  ,                                       !- Interpolate to Timestep
  7,                                      !- Hour 1
  0,                                      !- Minute 1
  1,                                      !- Value Until Time 1
  8,                                      !- Hour 2
  0,                                      !- Minute 2
  0.85,                                   !- Value Until Time 2
  9,                                      !- Hour 3
  0,                                      !- Minute 3
  0.39,                                   !- Value Until Time 3
  16,                                     !- Hour 4
  0,                                      !- Minute 4
  0.25,                                   !- Value Until Time 4
  17,                                     !- Hour 5
  0,                                      !- Minute 5
  0.3,                                    !- Value Until Time 5
  18,                                     !- Hour 6
  0,                                      !- Minute 6
  0.52,                                   !- Value Until Time 6
  21,                                     !- Hour 7
  0,                                      !- Minute 7
  0.87,                                   !- Value Until Time 7
  24,                                     !- Hour 8
  0,                                      !- Minute 8
  1;                                      !- Value Until Time 8

OS:Schedule:Ruleset,
  {e26b492e-425c-4e5f-aa87-d4ffda94c84f}, !- Handle
  ApartmentMidRise EQP_APT_SCH,           !- Name
  {7b3730c4-2316-4cec-8e00-7a06f32e39de}, !- Schedule Type Limits Name
  {4983cb78-22c7-49c9-8cf3-992455e5fa8d}, !- Default Day Schedule Name
  {5154ce9b-2804-4b80-91f3-330c89b29ba3}, !- Summer Design Day Schedule Name
  {f5e6be83-ec42-4e86-897e-a14bdf10214c}; !- Winter Design Day Schedule Name

OS:Schedule:Day,
  {4983cb78-22c7-49c9-8cf3-992455e5fa8d}, !- Handle
  ApartmentMidRise EQP_APT_SCH_Default,   !- Name
  {7b3730c4-2316-4cec-8e00-7a06f32e39de}, !- Schedule Type Limits Name
  ,                                       !- Interpolate to Timestep
  1,                                      !- Hour 1
  0,                                      !- Minute 1
  0.45,                                   !- Value Until Time 1
  2,                                      !- Hour 2
  0,                                      !- Minute 2
  0.41,                                   !- Value Until Time 2
  3,                                      !- Hour 3
  0,                                      !- Minute 3
  0.39,                                   !- Value Until Time 3
  5,                                      !- Hour 4
  0,                                      !- Minute 4
  0.38,                                   !- Value Until Time 4
  6,                                      !- Hour 5
  0,                                      !- Minute 5
  0.43,                                   !- Value Until Time 5
  7,                                      !- Hour 6
  0,                                      !- Minute 6
  0.54,                                   !- Value Until Time 6
  8,                                      !- Hour 7
  0,                                      !- Minute 7
  0.65,                                   !- Value Until Time 7
  9,                                      !- Hour 8
  0,                                      !- Minute 8
  0.66,                                   !- Value Until Time 8
  10,                                     !- Hour 9
  0,                                      !- Minute 9
  0.67,                                   !- Value Until Time 9
  11,                                     !- Hour 10
  0,                                      !- Minute 10
  0.69,                                   !- Value Until Time 10
  12,                                     !- Hour 11
  0,                                      !- Minute 11
  0.7,                                    !- Value Until Time 11
  13,                                     !- Hour 12
  0,                                      !- Minute 12
  0.69,                                   !- Value Until Time 12
  14,                                     !- Hour 13
  0,                                      !- Minute 13
  0.66,                                   !- Value Until Time 13
  15,                                     !- Hour 14
  0,                                      !- Minute 14
  0.65,                                   !- Value Until Time 14
  16,                                     !- Hour 15
  0,                                      !- Minute 15
  0.68,                                   !- Value Until Time 15
  17,                                     !- Hour 16
  0,                                      !- Minute 16
  0.8,                                    !- Value Until Time 16
  19,                                     !- Hour 17
  0,                                      !- Minute 17
  1,                                      !- Value Until Time 17
  20,                                     !- Hour 18
  0,                                      !- Minute 18
  0.93,                                   !- Value Until Time 18
  21,                                     !- Hour 19
  0,                                      !- Minute 19
  0.89,                                   !- Value Until Time 19
  22,                                     !- Hour 20
  0,                                      !- Minute 20
  0.85,                                   !- Value Until Time 20
  23,                                     !- Hour 21
  0,                                      !- Minute 21
  0.71,                                   !- Value Until Time 21
  24,                                     !- Hour 22
  0,                                      !- Minute 22
  0.58;                                   !- Value Until Time 22

OS:Schedule:Day,
  {05009bc4-5cd5-4368-9e10-52ddf29625c0}, !- Handle
  ApartmentMidRise EQP_APT_SCH_SmrDsn,    !- Name
  {7b3730c4-2316-4cec-8e00-7a06f32e39de}, !- Schedule Type Limits Name
  ,                                       !- Interpolate to Timestep
  1,                                      !- Hour 1
  0,                                      !- Minute 1
  0.45,                                   !- Value Until Time 1
  2,                                      !- Hour 2
  0,                                      !- Minute 2
  0.41,                                   !- Value Until Time 2
  3,                                      !- Hour 3
  0,                                      !- Minute 3
  0.39,                                   !- Value Until Time 3
  5,                                      !- Hour 4
  0,                                      !- Minute 4
  0.38,                                   !- Value Until Time 4
  6,                                      !- Hour 5
  0,                                      !- Minute 5
  0.43,                                   !- Value Until Time 5
  7,                                      !- Hour 6
  0,                                      !- Minute 6
  0.54,                                   !- Value Until Time 6
  8,                                      !- Hour 7
  0,                                      !- Minute 7
  0.65,                                   !- Value Until Time 7
  9,                                      !- Hour 8
  0,                                      !- Minute 8
  0.66,                                   !- Value Until Time 8
  10,                                     !- Hour 9
  0,                                      !- Minute 9
  0.67,                                   !- Value Until Time 9
  11,                                     !- Hour 10
  0,                                      !- Minute 10
  0.69,                                   !- Value Until Time 10
  12,                                     !- Hour 11
  0,                                      !- Minute 11
  0.7,                                    !- Value Until Time 11
  13,                                     !- Hour 12
  0,                                      !- Minute 12
  0.69,                                   !- Value Until Time 12
  14,                                     !- Hour 13
  0,                                      !- Minute 13
  0.66,                                   !- Value Until Time 13
  15,                                     !- Hour 14
  0,                                      !- Minute 14
  0.65,                                   !- Value Until Time 14
  16,                                     !- Hour 15
  0,                                      !- Minute 15
  0.68,                                   !- Value Until Time 15
  17,                                     !- Hour 16
  0,                                      !- Minute 16
  0.8,                                    !- Value Until Time 16
  19,                                     !- Hour 17
  0,                                      !- Minute 17
  1,                                      !- Value Until Time 17
  20,                                     !- Hour 18
  0,                                      !- Minute 18
  0.93,                                   !- Value Until Time 18
  21,                                     !- Hour 19
  0,                                      !- Minute 19
  0.89,                                   !- Value Until Time 19
  22,                                     !- Hour 20
  0,                                      !- Minute 20
  0.85,                                   !- Value Until Time 20
  23,                                     !- Hour 21
  0,                                      !- Minute 21
  0.71,                                   !- Value Until Time 21
  24,                                     !- Hour 22
  0,                                      !- Minute 22
  0.58;                                   !- Value Until Time 22

OS:Schedule:Day,
  {cc4581ba-a31a-48a5-ba17-75fecf111d18}, !- Handle
  ApartmentMidRise EQP_APT_SCH_WntrDsn,   !- Name
  {7b3730c4-2316-4cec-8e00-7a06f32e39de}, !- Schedule Type Limits Name
  ,                                       !- Interpolate to Timestep
  1,                                      !- Hour 1
  0,                                      !- Minute 1
  0.45,                                   !- Value Until Time 1
  2,                                      !- Hour 2
  0,                                      !- Minute 2
  0.41,                                   !- Value Until Time 2
  3,                                      !- Hour 3
  0,                                      !- Minute 3
  0.39,                                   !- Value Until Time 3
  5,                                      !- Hour 4
  0,                                      !- Minute 4
  0.38,                                   !- Value Until Time 4
  6,                                      !- Hour 5
  0,                                      !- Minute 5
  0.43,                                   !- Value Until Time 5
  7,                                      !- Hour 6
  0,                                      !- Minute 6
  0.54,                                   !- Value Until Time 6
  8,                                      !- Hour 7
  0,                                      !- Minute 7
  0.65,                                   !- Value Until Time 7
  9,                                      !- Hour 8
  0,                                      !- Minute 8
  0.66,                                   !- Value Until Time 8
  10,                                     !- Hour 9
  0,                                      !- Minute 9
  0.67,                                   !- Value Until Time 9
  11,                                     !- Hour 10
  0,                                      !- Minute 10
  0.69,                                   !- Value Until Time 10
  12,                                     !- Hour 11
  0,                                      !- Minute 11
  0.7,                                    !- Value Until Time 11
  13,                                     !- Hour 12
  0,                                      !- Minute 12
  0.69,                                   !- Value Until Time 12
  14,                                     !- Hour 13
  0,                                      !- Minute 13
  0.66,                                   !- Value Until Time 13
  15,                                     !- Hour 14
  0,                                      !- Minute 14
  0.65,                                   !- Value Until Time 14
  16,                                     !- Hour 15
  0,                                      !- Minute 15
  0.68,                                   !- Value Until Time 15
  17,                                     !- Hour 16