
Version,
  9.6;                                    !- Version Identifier

Timestep,
  6;                                      !- Number of Timesteps per Hour

LifeCycleCost:Parameters,
  Life Cycle Cost Parameters,             !- Name
  EndOfYear,                              !- Discounting Convention
  ConstantDollar,                         !- Inflation Approach
  0.03,                                   !- Real Discount Rate
  ,                                       !- Nominal Discount Rate
  ,                                       !- Inflation
  ,                                       !- Base Date Month
  2011,                                   !- Base Date Year
  ,                                       !- Service Date Month
  2011,                                   !- Service Date Year
  25,                                     !- Length of Study Period in Years
  ,                                       !- Tax rate
  None;                                   !- Depreciation Method

LifeCycleCost:UsePriceEscalation,
  U.S. Avg  Commercial-Electricity,       !- Name
  Electricity,                            !- Resource
  2011,                                   !- Escalation Start Year
  January,                                !- Escalation Start Month
  0.9838,                                 !- Year Escalation 1
  0.9730,                                 !- Year Escalation 2
  0.9632,                                 !- Year Escalation 3
  0.9611,                                 !- Year Escalation 4
  0.9571,                                 !- Year Escalation 5
  0.9553,                                 !- Year Escalation 6
  0.9539,                                 !- Year Escalation 7
  0.9521,                                 !- Year Escalation 8
  0.9546,                                 !- Year Escalation 9
  0.9550,                                 !- Year Escalation 10
  0.9553,                                 !- Year Escalation 11
  0.9564,                                 !- Year Escalation 12
  0.9575,                                 !- Year Escalation 13
  0.9596,                                 !- Year Escalation 14
  0.9618,                                 !- Year Escalation 15
  0.9614,                                 !- Year Escalation 16
  0.9618,                                 !- Year Escalation 17
  0.9618,                                 !- Year Escalation 18
  0.9593,                                 !- Year Escalation 19
  0.9589,                                 !- Year Escalation 20
  0.9607,                                 !- Year Escalation 21
  0.9625,                                 !- Year Escalation 22
  0.9650,                                 !- Year Escalation 23
  0.9708,                                 !- Year Escalation 24
  0.9751,                                 !- Year Escalation 25
  0.9762,                                 !- Year Escalation 26
  0.9766,                                 !- Year Escalation 27
  0.9766,                                 !- Year Escalation 28
  0.9769,                                 !- Year Escalation 29
  0.9773;                                 !- Year Escalation 30

LifeCycleCost:UsePriceEscalation,
  U.S. Avg  Commercial-Distillate Oil,    !- Name
  FuelOilNo1,                             !- Resource
  2011,                                   !- Escalation Start Year
  January,                                !- Escalation Start Month
  0.9714,                                 !- Year Escalation 1
  0.9730,                                 !- Year Escalation 2
  0.9942,                                 !- Year Escalation 3
  1.0164,                                 !- Year Escalation 4
  1.0541,                                 !- Year Escalation 5
  1.0928,                                 !- Year Escalation 6
  1.1267,                                 !- Year Escalation 7
  1.1580,                                 !- Year Escalation 8
  1.1792,                                 !- Year Escalation 9
  1.1967,                                 !- Year Escalation 10
  1.2200,                                 !- Year Escalation 11
  1.2333,                                 !- Year Escalation 12
  1.2566,                                 !- Year Escalation 13
  1.2709,                                 !- Year Escalation 14
  1.2826,                                 !- Year Escalation 15
  1.2985,                                 !- Year Escalation 16
  1.3102,                                 !- Year Escalation 17
  1.3250,                                 !- Year Escalation 18
  1.3261,                                 !- Year Escalation 19
  1.3282,                                 !- Year Escalation 20
  1.3324,                                 !- Year Escalation 21
  1.3356,                                 !- Year Escalation 22
  1.3431,                                 !- Year Escalation 23
  1.3510,                                 !- Year Escalation 24
  1.3568,                                 !- Year Escalation 25
  1.3606,                                 !- Year Escalation 26
  1.3637,                                 !- Year Escalation 27
  1.3674,                                 !- Year Escalation 28
  1.3706,                                 !- Year Escalation 29
  1.3743;                                 !- Year Escalation 30

LifeCycleCost:UsePriceEscalation,
  U.S. Avg  Commercial-Residual Oil,      !- Name
  FuelOilNo2,                             !- Resource
  2011,                                   !- Escalation Start Year
  January,                                !- Escalation Start Month
  0.8469,                                 !- Year Escalation 1
  0.8257,                                 !- Year Escalation 2
  0.8681,                                 !- Year Escalation 3
  0.8988,                                 !- Year Escalation 4
  0.9289,                                 !- Year Escalation 5
  0.9604,                                 !- Year Escalation 6
  0.9897,                                 !- Year Escalation 7
  1.0075,                                 !- Year Escalation 8
  1.0314,                                 !- Year Escalation 9
  1.0554,                                 !- Year Escalation 10
  1.0861,                                 !- Year Escalation 11
  1.1278,                                 !- Year Escalation 12
  1.1497,                                 !- Year Escalation 13
  1.1620,                                 !- Year Escalation 14
  1.1743,                                 !- Year Escalation 15
  1.1852,                                 !- Year Escalation 16
  1.1948,                                 !- Year Escalation 17
  1.2037,                                 !- Year Escalation 18
  1.2071,                                 !- Year Escalation 19
  1.2119,                                 !- Year Escalation 20
  1.2139,                                 !- Year Escalation 21
  1.2194,                                 !- Year Escalation 22
  1.2276,                                 !- Year Escalation 23
  1.2365,                                 !- Year Escalation 24
  1.2420,                                 !- Year Escalation 25
  1.2461,                                 !- Year Escalation 26
  1.2509,                                 !- Year Escalation 27
  1.2550,                                 !- Year Escalation 28
  1.2591,                                 !- Year Escalation 29
  1.2638;                                 !- Year Escalation 30

LifeCycleCost:UsePriceEscalation,
  U.S. Avg  Commercial-Natural gas,       !- Name
  NaturalGas,                             !- Resource
  2011,                                   !- Escalation Start Year
  January,                                !- Escalation Start Month
  0.9823,                                 !- Year Escalation 1
  0.9557,                                 !- Year Escalation 2
  0.9279,                                 !- Year Escalation 3
  0.9257,                                 !- Year Escalation 4
  0.9346,                                 !- Year Escalation 5
  0.9412,                                 !- Year Escalation 6
  0.9512,                                 !- Year Escalation 7
  0.9645,                                 !- Year Escalation 8
  0.9856,                                 !- Year Escalation 9
  1.0067,                                 !- Year Escalation 10
  1.0222,                                 !- Year Escalation 11
  1.0410,                                 !- Year Escalation 12
  1.0610,                                 !- Year Escalation 13
  1.0787,                                 !- Year Escalation 14
  1.0942,                                 !- Year Escalation 15
  1.1098,                                 !- Year Escalation 16
  1.1220,                                 !- Year Escalation 17
  1.1308,                                 !- Year Escalation 18
  1.1386,                                 !- Year Escalation 19
  1.1486,                                 !- Year Escalation 20
  1.1619,                                 !- Year Escalation 21
  1.1763,                                 !- Year Escalation 22
  1.1918,                                 !- Year Escalation 23
  1.2118,                                 !- Year Escalation 24
  1.2284,                                 !- Year Escalation 25
  1.2439,                                 !- Year Escalation 26
  1.2605,                                 !- Year Escalation 27
  1.2772,                                 !- Year Escalation 28
  1.2938,                                 !- Year Escalation 29
  1.3115;                                 !- Year Escalation 30

LifeCycleCost:UsePriceEscalation,
  U.S. Avg  Commercial-Coal,              !- Name
  Coal,                                   !- Resource
  2011,                                   !- Escalation Start Year
  January,                                !- Escalation Start Month
  0.9970,                                 !- Year Escalation 1
  1.0089,                                 !- Year Escalation 2
  1.0089,                                 !- Year Escalation 3
  0.9941,                                 !- Year Escalation 4
  0.9941,                                 !- Year Escalation 5
  1.0000,                                 !- Year Escalation 6
  1.0030,                                 !- Year Escalation 7
  1.0059,                                 !- Year Escalation 8
  1.0089,                                 !- Year Escalation 9
  1.0119,                                 !- Year Escalation 10
  1.0148,                                 !- Year Escalation 11
  1.0178,                                 !- Year Escalation 12
  1.0208,                                 !- Year Escalation 13
  1.0267,                                 !- Year Escalation 14
  1.0297,                                 !- Year Escalation 15
  1.0356,                                 !- Year Escalation 16
  1.0415,                                 !- Year Escalation 17
  1.0534,                                 !- Year Escalation 18
  1.0564,                                 !- Year Escalation 19
  1.0593,                                 !- Year Escalation 20
  1.0653,                                 !- Year Escalation 21
  1.0712,                                 !- Year Escalation 22
  1.0742,                                 !- Year Escalation 23
  1.0801,                                 !- Year Escalation 24
  1.0831,                                 !- Year Escalation 25
  1.0831,                                 !- Year Escalation 26
  1.0861,                                 !- Year Escalation 27
  1.0890,                                 !- Year Escalation 28
  1.0920,                                 !- Year Escalation 29
  1.0950;                                 !- Year Escalation 30

Building,
  Building 1,                             !- Name
  0,                                      !- North Axis {deg}
  City,                                   !- Terrain
  ,                                       !- Loads Convergence Tolerance Value {W}
  ,                                       !- Temperature Convergence Tolerance Value {deltaC}
  FullExteriorWithReflections,            !- Solar Distribution
  ,                                       !- Maximum Number of Warmup Days
  ;                                       !- Minimum Number of Warmup Days

Shading:Building:Detailed,
  Shade_16548d58_0,                       !- Name
  ,                                       !- Transmittance Schedule Name
  ,                                       !- Number of Vertices
  -1.82966928005218, 31.8088551712036, 6.1, !- X,Y,Z Vertex 1 {m}
  -1.82966928005218, 31.8088551712036, 0, !- X,Y,Z Vertex 2 {m}
  -6.27761260986328, 31.9224040985107, 0, !- X,Y,Z Vertex 3 {m}
  -6.27761260986328, 31.9224040985107, 6.1; !- X,Y,Z Vertex 4 {m}

Shading:Building:Detailed,
  Shade_16548d58_1,                       !- Name
  ,                                       !- Transmittance Schedule Name
  ,                                       !- Number of Vertices
  -6.27761260986328, 31.9224040985107, 6.1, !- X,Y,Z Vertex 1 {m}
  -6.27761260986328, 31.9224040985107, 0, !- X,Y,Z Vertex 2 {m}
  -6.27477080345154, 33.3505697631836, 0, !- X,Y,Z Vertex 3 {m}
  -6.27477080345154, 33.3505697631836, 6.1; !- X,Y,Z Vertex 4 {m}

Shading:Building:Detailed,
  Shade_16548d58_10,                      !- Name
  ,                                       !- Transmittance Schedule Name
  ,                                       !- Number of Vertices
  -1.82966928005218, 31.8088551712036, 0, !- X,Y,Z Vertex 1 {m}
  -1.97015573978424, 20.9743463516235, 0, !- X,Y,Z Vertex 2 {m}
  -9.27306621551514, 21.0127645492554, 0, !- X,Y,Z Vertex 3 {m}
  -9.16269999504089, 25.649273223877, 0,  !- X,Y,Z Vertex 4 {m}
  -10.05301612854, 25.7150821304321, 0,   !- X,Y,Z Vertex 5 {m}
  -9.93355787277222, 29.8128331756592, 0, !- X,Y,Z Vertex 6 {m}
  -9.1245098400116, 29.772597618103, 0,   !- X,Y,Z Vertex 7 {m}
  -9.26624646186829, 33.3809180450439, 0, !- X,Y,Z Vertex 8 {m}
  -6.27477080345154, 33.3505697631836, 0, !- X,Y,Z Vertex 9 {m}
  -6.27761260986328, 31.9224040985107, 0; !- X,Y,Z Vertex 10 {m}

Shading:Building:Detailed,
  Shade_16548d58_11,                      !- Name
  ,                                       !- Transmittance Schedule Name
  ,                                       !- Number of Vertices
  -9.26624646186829, 33.3809180450439, 6.1, !- X,Y,Z Vertex 1 {m}
  -9.1245098400116, 29.772597618103, 6.1, !- X,Y,Z Vertex 2 {m}
  -9.93355787277222, 29.8128331756592, 6.1, !- X,Y,Z Vertex 3 {m}
  -10.05301612854, 25.7150821304321, 6.1, !- X,Y,Z Vertex 4 {m}
  -9.16269999504089, 25.649273223877, 6.1, !- X,Y,Z Vertex 5 {m}
  -9.27306621551514, 21.0127645492554, 6.1, !- X,Y,Z Vertex 6 {m}
  -1.97015573978424, 20.9743463516235, 6.1, !- X,Y,Z Vertex 7 {m}
  -1.82966928005218, 31.8088551712036, 6.1, !- X,Y,Z Vertex 8 {m}
  -6.27761260986328, 31.9224040985107, 6.1, !- X,Y,Z Vertex 9 {m}
  -6.27477080345154, 33.3505697631836, 6.1; !- X,Y,Z Vertex 10 {m}

Shading:Building:Detailed,
  Shade_16548d58_2,                       !- Name
  ,                                       !- Transmittance Schedule Name
  ,                                       !- Number of Vertices
  -6.27477080345154, 33.3505697631836, 6.1, !- X,Y,Z Vertex 1 {m}
  -6.27477080345154, 33.3505697631836, 0, !- X,Y,Z Vertex 2 {m}
  -9.26624646186829, 33.3809180450439, 0, !- X,Y,Z Vertex 3 {m}
  -9.26624646186829, 33.3809180450439, 6.1; !- X,Y,Z Vertex 4 {m}

Shading:Building:Detailed,
  Shade_16548d58_3,                       !- Name
  ,                                       !- Transmittance Schedule Name
  ,                                       !- Number of Vertices
  -9.26624646186829, 33.3809180450439, 6.1, !- X,Y,Z Vertex 1 {m}
  -9.26624646186829, 33.3809180450439, 0, !- X,Y,Z Vertex 2 {m}
  -9.1245098400116, 29.772597618103, 0,   !- X,Y,Z Vertex 3 {m}
  -9.1245098400116, 29.772597618103, 6.1; !- X,Y,Z Vertex 4 {m}

Shading:Building:Detailed,
  Shade_16548d58_4,                       !- Name
  ,                                       !- Transmittance Schedule Name
  ,                                       !- Number of Vertices
  -9.1245098400116, 29.772597618103, 6.1, !- X,Y,Z Vertex 1 {m}
  -9.1245098400116, 29.772597618103, 0,   !- X,Y,Z Vertex 2 {m}
  -9.93355787277222, 29.8128331756592, 0, !- X,Y,Z Vertex 3 {m}
  -9.93355787277222, 29.8128331756592, 6.1; !- X,Y,Z Vertex 4 {m}

Shading:Building:Detailed,
  Shade_16548d58_5,                       !- Name
  ,                                       !- Transmittance Schedule Name
  ,                                       !- Number of Vertices
  -9.93355787277222, 29.8128331756592, 6.1, !- X,Y,Z Vertex 1 {m}
  -9.93355787277222, 29.8128331756592, 0, !- X,Y,Z Vertex 2 {m}
  -10.05301612854, 25.7150821304321, 0,   !- X,Y,Z Vertex 3 {m}
  -10.05301612854, 25.7150821304321, 6.1; !- X,Y,Z Vertex 4 {m}

Shading:Building:Detailed,
  Shade_16548d58_6,                       !- Name
  ,                                       !- Transmittance Schedule Name
  ,                                       !- Number of Vertices
  -10.05301612854, 25.7150821304321, 6.1, !- X,Y,Z Vertex 1 {m}
  -10.05301612854, 25.7150821304321, 0,   !- X,Y,Z Vertex 2 {m}
  -9.16269999504089, 25.649273223877, 0,  !- X,Y,Z Vertex 3 {m}
  -9.16269999504089, 25.649273223877, 6.1; !- X,Y,Z Vertex 4 {m}

Shading:Building:Detailed,
  Shade_16548d58_7,                       !- Name
  ,                                       !- Transmittance Schedule Name
  ,                                       !- Number of Vertices
  -9.16269999504089, 25.649273223877, 6.1, !- X,Y,Z Vertex 1 {m}
  -9.16269999504089, 25.649273223877, 0,  !- X,Y,Z Vertex 2 {m}
  -9.27306621551514, 21.0127645492554, 0, !- X,Y,Z Vertex 3 {m}
  -9.27306621551514, 21.0127645492554, 6.1; !- X,Y,Z Vertex 4 {m}

Shading:Building:Detailed,
  Shade_16548d58_8,                       !- Name
  ,                                       !- Transmittance Schedule Name
  ,                                       !- Number of Vertices
  -9.27306621551514, 21.0127645492554, 6.1, !- X,Y,Z Vertex 1 {m}
  -9.27306621551514, 21.0127645492554, 0, !- X,Y,Z Vertex 2 {m}
  -1.97015573978424, 20.9743463516235, 0, !- X,Y,Z Vertex 3 {m}
  -1.97015573978424, 20.9743463516235, 6.1; !- X,Y,Z Vertex 4 {m}

Shading:Building:Detailed,
  Shade_16548d58_9,                       !- Name
  ,                                       !- Transmittance Schedule Name
  ,                                       !- Number of Vertices
  -1.97015573978424, 20.9743463516235, 6.1, !- X,Y,Z Vertex 1 {m}
  -1.97015573978424, 20.9743463516235, 0, !- X,Y,Z Vertex 2 {m}
  -1.82966928005218, 31.8088551712036, 0, !- X,Y,Z Vertex 3 {m}
  -1.82966928005218, 31.8088551712036, 6.1; !- X,Y,Z Vertex 4 {m}

Shading:Building:Detailed,
  Shade_1dc2eb91_0,                       !- Name
  ,                                       !- Transmittance Schedule Name
  ,                                       !- Number of Vertices
  -17.7230987548828, -6.38108810424805, 6.1, !- X,Y,Z Vertex 1 {m}
  -17.7230987548828, -6.38108810424805, 0, !- X,Y,Z Vertex 2 {m}
  -22.2458490753174, -6.56349542617798, 0, !- X,Y,Z Vertex 3 {m}
  -22.2458490753174, -6.56349542617798, 6.1; !- X,Y,Z Vertex 4 {m}

Shading:Building:Detailed,
  Shade_1dc2eb91_1,                       !- Name
  ,                                       !- Transmittance Schedule Name
  ,                                       !- Number of Vertices
  -22.2458490753174, -6.56349542617798, 6.1, !- X,Y,Z Vertex 1 {m}
  -22.2458490753174, -6.56349542617798, 0, !- X,Y,Z Vertex 2 {m}
  -22.2495792007446, -8.43753440856934, 0, !- X,Y,Z Vertex 3 {m}
  -22.2495792007446, -8.43753440856934, 6.1; !- X,Y,Z Vertex 4 {m}

Shading:Building:Detailed,
  Shade_1dc2eb91_2,                       !- Name
  ,                                       !- Transmittance Schedule Name
  ,                                       !- Number of Vertices
  -22.2495792007446, -8.43753440856934, 6.1, !- X,Y,Z Vertex 1 {m}
  -22.2495792007446, -8.43753440856934, 0, !- X,Y,Z Vertex 2 {m}
  -23.2743700790405, -8.4725092792511, 0, !- X,Y,Z Vertex 3 {m}
  -23.2743700790405, -8.4725092792511, 6.1; !- X,Y,Z Vertex 4 {m}

Shading:Building:Detailed,
  Shade_1dc2eb91_3,                       !- Name
  ,                                       !- Transmittance Schedule Name
  ,                                       !- Number of Vertices
  -23.2743700790405, -8.4725092792511, 6.1, !- X,Y,Z Vertex 1 {m}
  -23.2743700790405, -8.4725092792511, 0, !- X,Y,Z Vertex 2 {m}
  -23.1696682739258, -14.6760784339905, 0, !- X,Y,Z Vertex 3 {m}
  -23.1696682739258, -14.6760784339905, 6.1; !- X,Y,Z Vertex 4 {m}

Shading:Building:Detailed,
  Shade_1dc2eb91_4,                       !- Name
  ,                                       !- Transmittance Schedule Name
  ,                                       !- Number of Vertices
  -23.1696682739258, -14.6760784339905, 6.1, !- X,Y,Z Vertex 1 {m}
  -23.1696682739258, -14.6760784339905, 0, !- X,Y,Z Vertex 2 {m}
  -17.0179293632507, -14.6429668807983, 0, !- X,Y,Z Vertex 3 {m}
  -17.0179293632507, -14.6429668807983, 6.1; !- X,Y,Z Vertex 4 {m}

Shading:Building:Detailed,
  Shade_1dc2eb91_5,                       !- Name
  ,                                       !- Transmittance Schedule Name
  ,                                       !- Number of Vertices
  -17.0179293632507, -14.6429668807983, 6.1, !- X,Y,Z Vertex 1 {m}
  -17.0179293632507, -14.6429668807983, 0, !- X,Y,Z Vertex 2 {m}
  -17.0357527542114, -8.34953730583191, 0, !- X,Y,Z Vertex 3 {m}
  -17.0357527542114, -8.34953730583191, 6.1; !- X,Y,Z Vertex 4 {m}

Shading:Building:Detailed,
  Shade_1dc2eb91_6,                       !- Name
  ,                                       !- Transmittance Schedule Name
  ,                                       !- Number of Vertices
  -17.0357527542114, -8.34953730583191, 6.1, !- X,Y,Z Vertex 1 {m}
  -17.0357527542114, -8.34953730583191, 0, !- X,Y,Z Vertex 2 {m}
  -17.5836460494995, -8.3587846660614, 0, !- X,Y,Z Vertex 3 {m}
  -17.5836460494995, -8.3587846660614, 6.1; !- X,Y,Z Vertex 4 {m}

Shading:Building:Detailed,
  Shade_1dc2eb91_7,                       !- Name
  ,                                       !- Transmittance Schedule Name
  ,                                       !- Number of Vertices
  -17.5836460494995, -8.3587846660614, 6.1, !- X,Y,Z Vertex 1 {m}
  -17.5836460494995, -8.3587846660614, 0, !- X,Y,Z Vertex 2 {m}
  -17.7230987548828, -6.38108810424805, 0, !- X,Y,Z Vertex 3 {m}
  -17.7230987548828, -6.38108810424805, 6.1; !- X,Y,Z Vertex 4 {m}

Shading:Building:Detailed,
  Shade_1dc2eb91_8,                       !- Name
  ,                                       !- Transmittance Schedule Name
  ,                                       !- Number of Vertices
  -17.7230987548828, -6.38108810424805, 0, !- X,Y,Z Vertex 1 {m}
  -17.5836460494995, -8.3587846660614, 0, !- X,Y,Z Vertex 2 {m}
  -17.0357527542114, -8.34953730583191, 0, !- X,Y,Z Vertex 3 {m}
  -17.0179293632507, -14.6429668807983, 0, !- X,Y,Z Vertex 4 {m}
  -23.1696682739258, -14.6760784339905, 0, !- X,Y,Z Vertex 5 {m}
  -23.2743700790405, -8.4725092792511, 0, !- X,Y,Z Vertex 6 {m}
  -22.2495792007446, -8.43753440856934, 0, !- X,Y,Z Vertex 7 {m}
  -22.2458490753174, -6.56349542617798, 0; !- X,Y,Z Vertex 8 {m}

Shading:Building:Detailed,
  Shade_1dc2eb91_9,                       !- Name
  ,                                       !- Transmittance Schedule Name
  ,                                       !- Number of Vertices
  -22.2458490753174, -6.56349542617798, 6.1, !- X,Y,Z Vertex 1 {m}
  -22.2495792007446, -8.43753440856934, 6.1, !- X,Y,Z Vertex 2 {m}
  -23.2743700790405, -8.4725092792511, 6.1, !- X,Y,Z Vertex 3 {m}
  -23.1696682739258, -14.6760784339905, 6.1, !- X,Y,Z Vertex 4 {m}
  -17.0179293632507, -14.6429668807983, 6.1, !- X,Y,Z Vertex 5 {m}
  -17.0357527542114, -8.34953730583191, 6.1, !- X,Y,Z Vertex 6 {m}
  -17.5836460494995, -8.3587846660614, 6.1, !- X,Y,Z Vertex 7 {m}
  -17.7230987548828, -6.38108810424805, 6.1; !- X,Y,Z Vertex 8 {m}

Shading:Building:Detailed,
  Shade_63c6a9ee_0,                       !- Name
  ,                                       !- Transmittance Schedule Name
  ,                                       !- Number of Vertices
  8.64277158737183, -8.85790418624878, 6.1, !- X,Y,Z Vertex 1 {m}
  8.64277158737183, -8.85790418624878, 0, !- X,Y,Z Vertex 2 {m}
  0.426244165301323, -8.96963400840759, 0, !- X,Y,Z Vertex 3 {m}
  0.426244165301323, -8.96963400840759, 6.1; !- X,Y,Z Vertex 4 {m}

Shading:Building:Detailed,
  Shade_63c6a9ee_1,                       !- Name
  ,                                       !- Transmittance Schedule Name
  ,                                       !- Number of Vertices
  0.426244165301323, -8.96963400840759, 6.1, !- X,Y,Z Vertex 1 {m}
  0.426244165301323, -8.96963400840759, 0, !- X,Y,Z Vertex 2 {m}
  0.571618124842644, -19.1795696258545, 0, !- X,Y,Z Vertex 3 {m}
  0.571618124842644, -19.1795696258545, 6.1; !- X,Y,Z Vertex 4 {m}

Shading:Building:Detailed,
  Shade_63c6a9ee_2,                       !- Name
  ,                                       !- Transmittance Schedule Name
  ,                                       !- Number of Vertices
  0.571618124842644, -19.1795696258545, 6.1, !- X,Y,Z Vertex 1 {m}
  0.571618124842644, -19.1795696258545, 0, !- X,Y,Z Vertex 2 {m}
  8.6799390411377, -19.0427196311951, 0,  !- X,Y,Z Vertex 3 {m}
  8.6799390411377, -19.0427196311951, 6.1; !- X,Y,Z Vertex 4 {m}

Shading:Building:Detailed,
  Shade_63c6a9ee_3,                       !- Name
  ,                                       !- Transmittance Schedule Name
  ,                                       !- Number of Vertices
  8.6799390411377, -19.0427196311951, 6.1, !- X,Y,Z Vertex 1 {m}
  8.6799390411377, -19.0427196311951, 0,  !- X,Y,Z Vertex 2 {m}
  8.67789305686951, -15.7284438514709, 0, !- X,Y,Z Vertex 3 {m}
  8.67789305686951, -15.7284438514709, 6.1; !- X,Y,Z Vertex 4 {m}

Shading:Building:Detailed,
  Shade_63c6a9ee_4,                       !- Name
  ,                                       !- Transmittance Schedule Name
  ,                                       !- Number of Vertices
  8.67789305686951, -15.7284438514709, 6.1, !- X,Y,Z Vertex 1 {m}
  8.67789305686951, -15.7284438514709, 0, !- X,Y,Z Vertex 2 {m}
  9.86316251754761, -15.7084389305115, 0, !- X,Y,Z Vertex 3 {m}
  9.86316251754761, -15.7084389305115, 6.1; !- X,Y,Z Vertex 4 {m}

Shading:Building:Detailed,
  Shade_63c6a9ee_5,                       !- Name
  ,                                       !- Transmittance Schedule Name
  ,                                       !- Number of Vertices
  9.86316251754761, -15.7084389305115, 6.1, !- X,Y,Z Vertex 1 {m}
  9.86316251754761, -15.7084389305115, 0, !- X,Y,Z Vertex 2 {m}
  9.8222439956665, -13.2840237808228, 0,  !- X,Y,Z Vertex 3 {m}
  9.8222439956665, -13.2840237808228, 6.1; !- X,Y,Z Vertex 4 {m}

Shading:Building:Detailed,
  Shade_63c6a9ee_6,                       !- Name
  ,                                       !- Transmittance Schedule Name
  ,                                       !- Number of Vertices
  9.8222439956665, -13.2840237808228, 6.1, !- X,Y,Z Vertex 1 {m}
  9.8222439956665, -13.2840237808228, 0,  !- X,Y,Z Vertex 2 {m}
  8.66300338745117, -13.24969871521, 0,   !- X,Y,Z Vertex 3 {m}
  8.66300338745117, -13.24969871521, 6.1; !- X,Y,Z Vertex 4 {m}

Shading:Building:Detailed,
  Shade_63c6a9ee_7,                       !- Name
  ,                                       !- Transmittance Schedule Name
  ,                                       !- Number of Vertices
  8.66300338745117, -13.24969871521, 6.1, !- X,Y,Z Vertex 1 {m}
  8.66300338745117, -13.24969871521, 0,   !- X,Y,Z Vertex 2 {m}
  8.64277158737183, -8.85790418624878, 0, !- X,Y,Z Vertex 3 {m}
  8.64277158737183, -8.85790418624878, 6.1; !- X,Y,Z Vertex 4 {m}

Shading:Building:Detailed,
  Shade_63c6a9ee_8,                       !- Name
  ,                                       !- Transmittance Schedule Name
  ,                                       !- Number of Vertices
  8.64277158737183, -8.85790418624878, 0, !- X,Y,Z Vertex 1 {m}
  8.66300338745117, -13.24969871521, 0,   !- X,Y,Z Vertex 2 {m}
  9.8222439956665, -13.2840237808228, 0,  !- X,Y,Z Vertex 3 {m}
  9.86316251754761, -15.7084389305115, 0, !- X,Y,Z Vertex 4 {m}
  8.67789305686951, -15.7284438514709, 0, !- X,Y,Z Vertex 5 {m}
  8.6799390411377, -19.0427196311951, 0,  !- X,Y,Z Vertex 6 {m}
  0.571618124842644, -19.1795696258545, 0, !- X,Y,Z Vertex 7 {m}
  0.426244165301323, -8.96963400840759, 0; !- X,Y,Z Vertex 8 {m}

Shading:Building:Detailed,
  Shade_63c6a9ee_9,                       !- Name
  ,                                       !- Transmittance Schedule Name
  ,                                       !- Number of Vertices
  0.426244165301323, -8.96963400840759, 6.1, !- X,Y,Z Vertex 1 {m}
  0.571618124842644, -19.1795696258545, 6.1, !- X,Y,Z Vertex 2 {m}
  8.6799390411377, -19.0427196311951, 6.1, !- X,Y,Z Vertex 3 {m}
  8.67789305686951, -15.7284438514709, 6.1, !- X,Y,Z Vertex 4 {m}
  9.86316251754761, -15.7084389305115, 6.1, !- X,Y,Z Vertex 5 {m}
  9.8222439956665, -13.2840237808228, 6.1, !- X,Y,Z Vertex 6 {m}
  8.66300338745117, -13.24969871521, 6.1, !- X,Y,Z Vertex 7 {m}
  8.64277158737183, -8.85790418624878, 6.1; !- X,Y,Z Vertex 8 {m}

Shading:Building:Detailed,
  Shade_6c5c7280_0,                       !- Name
  ,                                       !- Transmittance Schedule Name
  ,                                       !- Number of Vertices
  -5.95081010818481, -21.9866135025024, 6.1, !- X,Y,Z Vertex 1 {m}
  -5.95081010818481, -21.9866135025024, 0, !- X,Y,Z Vertex 2 {m}
  -8.85430727958679, -21.9483116531372, 0, !- X,Y,Z Vertex 3 {m}