
OS:Version,
  {20f65ce2-ae4d-4604-9060-0ff1d110886d}, !- Handle
  3.3.0;                                  !- Version Identifier

OS:Building,
  {04355c59-4f74-4c82-ad70-9fe9d7f1b811}, !- Handle
  Building 1,                             !- Name
  ,                                       !- Building Sector Type
  0,                                      !- North Axis {deg}
  ,                                       !- Nominal Floor to Floor Height {m}
  ,                                       !- Space Type Name
  {0030ce29-5a40-48cd-a74c-b3e36f284aa2}, !- Default Construction Set Name
  ,                                       !- Default Schedule Set Name
  ,                                       !- Standards Number of Stories
  ,                                       !- Standards Number of Above Ground Stories
  ,                                       !- Standards Template
  MediumOffice;                           !- Standards Building Type

OS:Facility,
  {0524fbcf-cf8e-48d4-99bb-5b265443c660}; !- Handle

OS:Site,
  {7a94e4e5-48c7-4e35-ad68-2c2b45f571f0}, !- Handle
  Site 1,                                 !- Name
  ,                                       !- Latitude {deg}
  ,                                       !- Longitude {deg}
  ,                                       !- Time Zone {hr}
  ,                                       !- Elevation {m}
  City;                                   !- Terrain

OS:SimulationControl,
  {393c5563-daa1-40ab-bd62-fea9e0f4d870}, !- Handle
  Yes,                                    !- Do Zone Sizing Calculation
  Yes,                                    !- Do System Sizing Calculation
  Yes,                                    !- Do Plant Sizing Calculation
  No,                                     !- Run Simulation for Sizing Periods
  Yes,                                    !- Run Simulation for Weather File Run Periods
  ,                                       !- Loads Convergence Tolerance Value {W}
  ,                                       !- Temperature Convergence Tolerance Value {deltaC}
  FullExteriorWithReflections;            !- Solar Distribution

OS:Sizing:Parameters,
  {442b53c8-5a91-4ca1-b8e3-13b4b2489f37}, !- Handle
  1.25,                                   !- Heating Sizing Factor
  1.15;                                   !- Cooling Sizing Factor

OS:Timestep,
  {545d2095-3034-4e18-882a-1c870fbba715}, !- Handle
  6;                                      !- Number of Timesteps per Hour

OS:ShadowCalculation,
  {2743fd5e-a596-4772-bc10-76722a591fce}, !- Handle
  PixelCounting,                          !- Shading Calculation Method
  Periodic,                               !- Shading Calculation Update Frequency Method
  30,                                     !- Shading Calculation Update Frequency
  15000,                                  !- Maximum Figures in Shadow Overlap Calculations
  ,                                       !- Polygon Clipping Algorithm
  512,                                    !- Pixel Counting Resolution
  ,                                       !- Sky Diffuse Modeling Algorithm
  No,                                     !- Output External Shading Calculation Results
  No,                                     !- Disable Self-Shading Within Shading Zone Groups
  No;                                     !- Disable Self-Shading From Shading Zone Groups to Other Zones

OS:HeatBalanceAlgorithm,
  {43033418-06dd-4fb1-a1cf-0efe6521561e}, !- Handle
  ConductionTransferFunction,             !- Algorithm
  200;                                    !- Surface Temperature Upper Limit {C}

OS:RunPeriod,
  {8cf4a0ae-7bd3-4ec8-a115-03887edc121c}, !- Handle
  Run Period 1,                           !- Name
  1,                                      !- Begin Month
  1,                                      !- Begin Day of Month
  12,                                     !- End Month
  31,                                     !- End Day of Month
  ,                                       !- Use Weather File Holidays and Special Days
  ,                                       !- Use Weather File Daylight Saving Period
  ,                                       !- Apply Weekend Holiday Rule
  ,                                       !- Use Weather File Rain Indicators
  ,                                       !- Use Weather File Snow Indicators
  ;                                       !- Number of Times Runperiod to be Repeated

OS:LifeCycleCost:Parameters,
  {8e30c226-97b7-4f97-8e4f-cafc77691fa8}, !- Handle
  ,                                       !- Analysis Type
  ,                                       !- Discounting Convention
  ,                                       !- Inflation Approach
  ,                                       !- Real Discount Rate
  ,                                       !- Nominal Discount Rate
  ,                                       !- Inflation
  ,                                       !- Base Date Month
  ,                                       !- Base Date Year
  ,                                       !- Service Date Month
  ,                                       !- Service Date Year
  ;                                       !- Length of Study Period in Years

OS:WeatherFile,
  {dec62952-ab5e-45c5-8946-a5f4f99ea0ef}, !- Handle
  Seattle Seattle Tacoma Intl A,          !- City
  WA,                                     !- State Province Region
  USA,                                    !- Country
  TMY3,                                   !- Data Source
  727930,                                 !- WMO Number
  47.47,                                  !- Latitude {deg}
  -122.32,                                !- Longitude {deg}
  -8,                                     !- Time Zone {hr}
  122,                                    !- Elevation {m}
  C:/Users/papep/Documents/GitHub/msdc-thesis/data/USA_WA_Seattle-Tacoma.Intl.AP.727930_TMY3.epw, !- Url
  92912389,                               !- Checksum
  ,                                       !- Start Date Actual Year
  Sunday;                                 !- Start Day of Week

OS:ScheduleTypeLimits,
  {9fdd725a-3f03-4ef2-b76a-ab30e6235916}, !- Handle
  Temperature,                            !- Name
  -273.15,                                !- Lower Limit Value
  ,                                       !- Upper Limit Value
  Continuous,                             !- Numeric Type
  Temperature;                            !- Unit Type

OS:ScheduleTypeLimits,
  {4f0f6d0c-40db-45c2-80c7-60e030663b09}, !- Handle
  Activity Level,                         !- Name
  0,                                      !- Lower Limit Value
  ,                                       !- Upper Limit Value
  Continuous,                             !- Numeric Type
  ActivityLevel;                          !- Unit Type

OS:ScheduleTypeLimits,
  {138df6db-0904-47e6-8ce8-48f646d6277f}, !- Handle
  Fractional,                             !- Name
  0,                                      !- Lower Limit Value
  1,                                      !- Upper Limit Value
  Continuous,                             !- Numeric Type
  Dimensionless;                          !- Unit Type

OS:YearDescription,
  {7d190c8c-3448-432f-a5e3-26b20a7230be}, !- Handle
  ,                                       !- Calendar Year
  Sunday,                                 !- Day of Week for Start Day
  No;                                     !- Is Leap Year

OS:Schedule:Ruleset,
  {9db38e2a-5614-4a9e-be4c-efb98c7163b1}, !- Handle
  ApartmentMidRise HTGSETP_APT_SCH,       !- Name
  {9fdd725a-3f03-4ef2-b76a-ab30e6235916}, !- Schedule Type Limits Name
  {794ba44e-dbc7-47d1-9745-27b11ef945c5}, !- Default Day Schedule Name
  {887c692c-1d7f-492e-98e7-7dac5d202e0a}, !- Summer Design Day Schedule Name
  {a6a0c269-f821-4c8d-9bbf-6e3cf3e17ff0}; !- Winter Design Day Schedule Name

OS:Schedule:Day,
  {794ba44e-dbc7-47d1-9745-27b11ef945c5}, !- Handle
  ApartmentMidRise HTGSETP_APT_SCH_Default, !- Name
  {9fdd725a-3f03-4ef2-b76a-ab30e6235916}, !- Schedule Type Limits Name
  ,                                       !- Interpolate to Timestep
  24,                                     !- Hour 1
  0,                                      !- Minute 1
  21.7;                                   !- Value Until Time 1

OS:Schedule:Day,
  {33b6b155-f48f-44ae-bfe6-7e174c02e275}, !- Handle
  ApartmentMidRise HTGSETP_APT_SCH_SmrDsn, !- Name
  {9fdd725a-3f03-4ef2-b76a-ab30e6235916}, !- Schedule Type Limits Name
  ,                                       !- Interpolate to Timestep
  24,                                     !- Hour 1
  0,                                      !- Minute 1
  21.7;                                   !- Value Until Time 1

OS:Schedule:Day,
  {e198c507-3786-4e48-9b36-9b7c6e8ee46a}, !- Handle
  ApartmentMidRise HTGSETP_APT_SCH_WntrDsn, !- Name
  {9fdd725a-3f03-4ef2-b76a-ab30e6235916}, !- Schedule Type Limits Name
  ,                                       !- Interpolate to Timestep
  24,                                     !- Hour 1
  0,                                      !- Minute 1
  21.7;                                   !- Value Until Time 1

OS:Schedule:Day,
  {887c692c-1d7f-492e-98e7-7dac5d202e0a}, !- Handle
  ApartmentMidRise HTGSETP_APT_SCH_SmrDsn 1, !- Name
  {9fdd725a-3f03-4ef2-b76a-ab30e6235916}, !- Schedule Type Limits Name
  ,                                       !- Interpolate to Timestep
  24,                                     !- Hour 1
  0,                                      !- Minute 1
  21.7;                                   !- Value Until Time 1

OS:Schedule:Day,
  {a6a0c269-f821-4c8d-9bbf-6e3cf3e17ff0}, !- Handle
  ApartmentMidRise HTGSETP_APT_SCH_WntrDsn 1, !- Name
  {9fdd725a-3f03-4ef2-b76a-ab30e6235916}, !- Schedule Type Limits Name
  ,                                       !- Interpolate to Timestep
  24,                                     !- Hour 1
  0,                                      !- Minute 1
  21.7;                                   !- Value Until Time 1

OS:Schedule:Ruleset,
  {de5db482-fc09-4880-89ba-7f112757d4de}, !- Handle
  ApartmentMidRise OCC_APT_SCH,           !- Name
  {138df6db-0904-47e6-8ce8-48f646d6277f}, !- Schedule Type Limits Name
  {249473ac-70eb-4b61-a65f-0cdce675e492}, !- Default Day Schedule Name
  {ffa86551-7f0a-4fae-bd00-613217eceb72}, !- Summer Design Day Schedule Name
  {98177ba2-ac2a-441d-a5a0-340cb661454f}; !- Winter Design Day Schedule Name

OS:Schedule:Day,
  {249473ac-70eb-4b61-a65f-0cdce675e492}, !- Handle
  ApartmentMidRise OCC_APT_SCH_Default,   !- Name
  {138df6db-0904-47e6-8ce8-48f646d6277f}, !- Schedule Type Limits Name
  ,                                       !- Interpolate to Timestep
  7,                                      !- Hour 1
  0,                                      !- Minute 1
  1,                                      !- Value Until Time 1
  8,                                      !- Hour 2
  0,                                      !- Minute 2
  0.85,                                   !- Value Until Time 2
  9,                                      !- Hour 3
  0,                                      !- Minute 3
  0.39,                                   !- Value Until Time 3
  16,                                     !- Hour 4
  0,                                      !- Minute 4
  0.25,                                   !- Value Until Time 4
  17,                                     !- Hour 5
  0,                                      !- Minute 5
  0.3,                                    !- Value Until Time 5
  18,                                     !- Hour 6
  0,                                      !- Minute 6
  0.52,                                   !- Value Until Time 6
  21,                                     !- Hour 7
  0,                                      !- Minute 7
  0.87,                                   !- Value Until Time 7
  24,                                     !- Hour 8
  0,                                      !- Minute 8
  1;                                      !- Value Until Time 8

OS:Schedule:Day,
  {939a3dbf-d7da-4c2e-940e-d38542108cf9}, !- Handle
  ApartmentMidRise OCC_APT_SCH_SmrDsn,    !- Name
  {138df6db-0904-47e6-8ce8-48f646d6277f}, !- Schedule Type Limits Name
  ,                                       !- Interpolate to Timestep
  7,                                      !- Hour 1
  0,                                      !- Minute 1
  1,                                      !- Value Until Time 1
  8,                                      !- Hour 2
  0,                                      !- Minute 2
  0.85,                                   !- Value Until Time 2
  9,                                      !- Hour 3
  0,                                      !- Minute 3
  0.39,                                   !- Value Until Time 3
  16,                                     !- Hour 4
  0,                                      !- Minute 4
  0.25,                                   !- Value Until Time 4
  17,                                     !- Hour 5
  0,                                      !- Minute 5
  0.3,                                    !- Value Until Time 5
  18,                                     !- Hour 6
  0,                                      !- Minute 6
  0.52,                                   !- Value Until Time 6
  21,                                     !- Hour 7
  0,                                      !- Minute 7
  0.87,                                   !- Value Until Time 7
  24,                                     !- Hour 8
  0,                                      !- Minute 8
  1;                                      !- Value Until Time 8

OS:Schedule:Day,
  {cd52f9cf-4d7f-4de7-8946-f035be07ff14}, !- Handle
  ApartmentMidRise OCC_APT_SCH_WntrDsn,   !- Name
  {138df6db-0904-47e6-8ce8-48f646d6277f}, !- Schedule Type Limits Name
  ,                                       !- Interpolate to Timestep
  7,                                      !- Hour 1
  0,                                      !- Minute 1
  1,                                      !- Value Until Time 1
  8,                                      !- Hour 2
  0,                                      !- Minute 2
  0.85,                                   !- Value Until Time 2
  9,                                      !- Hour 3
  0,                                      !- Minute 3
  0.39,                                   !- Value Until Time 3
  16,                                     !- Hour 4
  0,                                      !- Minute 4
  0.25,                                   !- Value Until Time 4
  17,                                     !- Hour 5
  0,                                      !- Minute 5
  0.3,                                    !- Value Until Time 5
  18,                                     !- Hour 6
  0,                                      !- Minute 6
  0.52,                                   !- Value Until Time 6
  21,                                     !- Hour 7
  0,                                      !- Minute 7
  0.87,                                   !- Value Until Time 7
  24,                                     !- Hour 8
  0,                                      !- Minute 8
  1;                                      !- Value Until Time 8

OS:Schedule:Day,
  {ffa86551-7f0a-4fae-bd00-613217eceb72}, !- Handle
  ApartmentMidRise OCC_APT_SCH_SmrDsn 1,  !- Name
  {138df6db-0904-47e6-8ce8-48f646d6277f}, !- Schedule Type Limits Name
  ,                                       !- Interpolate to Timestep
  7,                                      !- Hour 1
  0,                                      !- Minute 1
  1,                                      !- Value Until Time 1
  8,                                      !- Hour 2
  0,                                      !- Minute 2
  0.85,                                   !- Value Until Time 2
  9,                                      !- Hour 3
  0,                                      !- Minute 3
  0.39,                                   !- Value Until Time 3
  16,                                     !- Hour 4
  0,                                      !- Minute 4
  0.25,                                   !- Value Until Time 4
  17,                                     !- Hour 5
  0,                                      !- Minute 5
  0.3,                                    !- Value Until Time 5
  18,                                     !- Hour 6
  0,                                      !- Minute 6
  0.52,                                   !- Value Until Time 6
  21,                                     !- Hour 7
  0,                                      !- Minute 7
  0.87,                                   !- Value Until Time 7
  24,                                     !- Hour 8
  0,                                      !- Minute 8
  1;                                      !- Value Until Time 8

OS:Schedule:Day,
  {98177ba2-ac2a-441d-a5a0-340cb661454f}, !- Handle
  ApartmentMidRise OCC_APT_SCH_WntrDsn 1, !- Name
  {138df6db-0904-47e6-8ce8-48f646d6277f}, !- Schedule Type Limits Name
  ,                                       !- Interpolate to Timestep
  7,                                      !- Hour 1
  0,                                      !- Minute 1
  1,                                      !- Value Until Time 1
  8,                                      !- Hour 2
  0,                                      !- Minute 2
  0.85,                                   !- Value Until Time 2
  9,                                      !- Hour 3
  0,                                      !- Minute 3
  0.39,                                   !- Value Until Time 3
  16,                                     !- Hour 4
  0,                                      !- Minute 4
  0.25,                                   !- Value Until Time 4
  17,                                     !- Hour 5
  0,                                      !- Minute 5
  0.3,                                    !- Value Until Time 5
  18,                                     !- Hour 6
  0,                                      !- Minute 6
  0.52,                                   !- Value Until Time 6
  21,                                     !- Hour 7
  0,                                      !- Minute 7
  0.87,                                   !- Value Until Time 7
  24,                                     !- Hour 8
  0,                                      !- Minute 8
  1;                                      !- Value Until Time 8

OS:Schedule:Ruleset,
  {de8c6b24-f0b4-4ce1-93a8-00893ebb539c}, !- Handle
  ApartmentMidRise EQP_APT_SCH,           !- Name
  {138df6db-0904-47e6-8ce8-48f646d6277f}, !- Schedule Type Limits Name
  {546673e0-621b-4d14-bc68-70fe69a834a6}, !- Default Day Schedule Name
  {d71eb159-4c2f-4213-82e0-202e97241331}, !- Summer Design Day Schedule Name
  {ae321ed6-06da-4352-8b92-47208908d74d}; !- Winter Design Day Schedule Name

OS:Schedule:Day,
  {546673e0-621b-4d14-bc68-70fe69a834a6}, !- Handle
  ApartmentMidRise EQP_APT_SCH_Default,   !- Name
  {138df6db-0904-47e6-8ce8-48f646d6277f}, !- Schedule Type Limits Name
  ,                                       !- Interpolate to Timestep
  1,                                      !- Hour 1
  0,                                      !- Minute 1
  0.45,                                   !- Value Until Time 1
  2,                                      !- Hour 2
  0,                                      !- Minute 2
  0.41,                                   !- Value Until Time 2
  3,                                      !- Hour 3
  0,                                      !- Minute 3
  0.39,                                   !- Value Until Time 3
  5,                                      !- Hour 4
  0,                                      !- Minute 4
  0.38,                                   !- Value Until Time 4
  6,                                      !- Hour 5
  0,                                      !- Minute 5
  0.43,                                   !- Value Until Time 5
  7,                                      !- Hour 6
  0,                                      !- Minute 6
  0.54,                                   !- Value Until Time 6
  8,                                      !- Hour 7
  0,                                      !- Minute 7
  0.65,                                   !- Value Until Time 7
  9,                                      !- Hour 8
  0,                                      !- Minute 8
  0.66,                                   !- Value Until Time 8
  10,                                     !- Hour 9
  0,                                      !- Minute 9
  0.67,                                   !- Value Until Time 9
  11,                                     !- Hour 10
  0,                                      !- Minute 10
  0.69,                                   !- Value Until Time 10
  12,                                     !- Hour 11
  0,                                      !- Minute 11
  0.7,                                    !- Value Until Time 11
  13,                                     !- Hour 12
  0,                                      !- Minute 12
  0.69,                                   !- Value Until Time 12
  14,                                     !- Hour 13
  0,                                      !- Minute 13
  0.66,                                   !- Value Until Time 13
  15,                                     !- Hour 14
  0,                                      !- Minute 14
  0.65,                                   !- Value Until Time 14
  16,                                     !- Hour 15
  0,                                      !- Minute 15
  0.68,                                   !- Value Until Time 15
  17,                                     !- Hour 16
  0,                                      !- Minute 16
  0.8,                                    !- Value Until Time 16
  19,                                     !- Hour 17
  0,                                      !- Minute 17
  1,                                      !- Value Until Time 17
  20,                                     !- Hour 18
  0,                                      !- Minute 18
  0.93,                                   !- Value Until Time 18
  21,                                     !- Hour 19
  0,                                      !- Minute 19
  0.89,                                   !- Value Until Time 19
  22,                                     !- Hour 20
  0,                                      !- Minute 20
  0.85,                                   !- Value Until Time 20
  23,                                     !- Hour 21
  0,                                      !- Minute 21
  0.71,                                   !- Value Until Time 21
  24,                                     !- Hour 22
  0,                                      !- Minute 22
  0.58;                                   !- Value Until Time 22

OS:Schedule:Day,
  {ff0438d5-bc32-4f88-9128-adb395ecd99d}, !- Handle
  ApartmentMidRise EQP_APT_SCH_SmrDsn,    !- Name
  {138df6db-0904-47e6-8ce8-48f646d6277f}, !- Schedule Type Limits Name
  ,                                       !- Interpolate to Timestep
  1,                                      !- Hour 1
  0,                                      !- Minute 1
  0.45,                                   !- Value Until Time 1
  2,                                      !- Hour 2
  0,                                      !- Minute 2
  0.41,                                   !- Value Until Time 2
  3,                                      !- Hour 3
  0,                                      !- Minute 3
  0.39,                                   !- Value Until Time 3
  5,                                      !- Hour 4
  0,                                      !- Minute 4
  0.38,                                   !- Value Until Time 4
  6,                                      !- Hour 5
  0,                                      !- Minute 5
  0.43,                                   !- Value Until Time 5
  7,                                      !- Hour 6
  0,                                      !- Minute 6
  0.54,                                   !- Value Until Time 6
  8,                                      !- Hour 7
  0,                                      !- Minute 7
  0.65,                                   !- Value Until Time 7
  9,                                      !- Hour 8
  0,                                      !- Minute 8
  0.66,                                   !- Value Until Time 8
  10,                                     !- Hour 9
  0,                                      !- Minute 9
  0.67,                                   !- Value Until Time 9
  11,                                     !- Hour 10
  0,                                      !- Minute 10
  0.69,                                   !- Value Until Time 10
  12,                                     !- Hour 11
  0,                                      !- Minute 11
  0.7,                                    !- Value Until Time 11
  13,                                     !- Hour 12
  0,                                      !- Minute 12
  0.69,                                   !- Value Until Time 12
  14,                                     !- Hour 13
  0,                                      !- Minute 13
  0.66,                                   !- Value Until Time 13
  15,                                     !- Hour 14
  0,                                      !- Minute 14
  0.65,                                   !- Value Until Time 14
  16,                                     !- Hour 15
  0,                                      !- Minute 15
  0.68,                                   !- Value Until Time 15
  17,                                     !- Hour 16
  0,                                      !- Minute 16
  0.8,                                    !- Value Until Time 16
  19,                                     !- Hour 17
  0,                                      !- Minute 17
  1,                                      !- Value Until Time 17
  20,                                     !- Hour 18
  0,                                      !- Minute 18
  0.93,                                   !- Value Until Time 18
  21,                                     !- Hour 19
  0,                                      !- Minute 19
  0.89,                                   !- Value Until Time 19
  22,                                     !- Hour 20
  0,                                      !- Minute 20
  0.85,                                   !- Value Until Time 20
  23,                                     !- Hour 21
  0,                                      !- Minute 21
  0.71,                                   !- Value Until Time 21
  24,                                     !- Hour 22
  0,                                      !- Minute 22
  0.58;                                   !- Value Until Time 22

OS:Schedule:Day,
  {13186ae8-06d4-49ae-a739-c4ba35f0c8f5}, !- Handle
  ApartmentMidRise EQP_APT_SCH_WntrDsn,   !- Name
  {138df6db-0904-47e6-8ce8-48f646d6277f}, !- Schedule Type Limits Name
  ,                                       !- Interpolate to Timestep
  1,                                      !- Hour 1
  0,                                      !- Minute 1
  0.45,                                   !- Value Until Time 1
  2,                                      !- Hour 2
  0,                                      !- Minute 2
  0.41,                                   !- Value Until Time 2
  3,                                      !- Hour 3
  0,                                      !- Minute 3
  0.39,                                   !- Value Until Time 3
  5,                                      !- Hour 4
  0,                                      !- Minute 4
  0.38,                                   !- Value Until Time 4
  6,                                      !- Hour 5
  0,                                      !- Minute 5
  0.43,                                   !- Value Until Time 5
  7,                                      !- Hour 6
  0,                                      !- Minute 6
  0.54,                                   !- Value Until Time 6
  8,                                      !- Hour 7
  0,                                      !- Minute 7
  0.65,                                   !- Value Until Time 7
  9,                                      !- Hour 8
  0,                                      !- Minute 8
  0.66,                                   !- Value Until Time 8
  10,                                     !- Hour 9
  0,                                      !- Minute 9
  0.67,                                   !- Value Until Time 9
  11,                                     !- Hour 10
  0,                                      !- Minute 10
  0.69,                                   !- Value Until Time 10
  12,                                     !- Hour 11
  0,                                      !- Minute 11
  0.7,                                    !- Value Until Time 11
  13,                                     !- Hour 12
  0,                                      !- Minute 12
  0.69,                                   !- Value Until Time 12
  14,                                     !- Hour 13
  0,                                      !- Minute 13
  0.66,                                   !- Value Until Time 13
  15,                                     !- Hour 14
  0,                                      !- Minute 14
  0.65,                                   !- Value Until Time 14
  16,                                     !- Hour 15
  0,                                      !- Minute 15
  0.68,                                   !- Value Until Time 15
  17,                                     !- Hour 16