
OS:Version,
  {ef6a4ef8-ba59-4536-99e6-0ec22e132f8c}, !- Handle
  3.3.0;                                  !- Version Identifier

OS:Building,
  {d5149002-3f6f-4779-9208-0a86910d8503}, !- Handle
  Building 1,                             !- Name
  ,                                       !- Building Sector Type
  0,                                      !- North Axis {deg}
  ,                                       !- Nominal Floor to Floor Height {m}
  ,                                       !- Space Type Name
  {2e647d14-8592-40e0-a38b-65393b986b0e}, !- Default Construction Set Name
  ,                                       !- Default Schedule Set Name
  ,                                       !- Standards Number of Stories
  ,                                       !- Standards Number of Above Ground Stories
  ,                                       !- Standards Template
  MediumOffice;                           !- Standards Building Type

OS:Facility,
  {e7bc908d-15ec-496d-b0f1-d73e7e70bf00}; !- Handle

OS:Site,
  {fd54b8f8-68a9-4d75-8710-72c1a7f9797c}, !- Handle
  Site 1,                                 !- Name
  ,                                       !- Latitude {deg}
  ,                                       !- Longitude {deg}
  ,                                       !- Time Zone {hr}
  ,                                       !- Elevation {m}
  City;                                   !- Terrain

OS:SimulationControl,
  {e0bbd492-2bc1-487b-81fb-49bcf430daeb}, !- Handle
  Yes,                                    !- Do Zone Sizing Calculation
  Yes,                                    !- Do System Sizing Calculation
  Yes,                                    !- Do Plant Sizing Calculation
  No,                                     !- Run Simulation for Sizing Periods
  Yes,                                    !- Run Simulation for Weather File Run Periods
  ,                                       !- Loads Convergence Tolerance Value {W}
  ,                                       !- Temperature Convergence Tolerance Value {deltaC}
  FullExteriorWithReflections;            !- Solar Distribution

OS:Sizing:Parameters,
  {f8e28dd4-e604-45f4-9723-a11195b25614}, !- Handle
  1.25,                                   !- Heating Sizing Factor
  1.15;                                   !- Cooling Sizing Factor

OS:Timestep,
  {c9df68ed-3375-4241-9026-8f91a1487280}, !- Handle
  6;                                      !- Number of Timesteps per Hour

OS:ShadowCalculation,
  {9ad9a88c-942a-45f5-bb04-9e156d7b1b20}, !- Handle
  PolygonClipping,                        !- Shading Calculation Method
  Periodic,                               !- Shading Calculation Update Frequency Method
  30,                                     !- Shading Calculation Update Frequency
  15000,                                  !- Maximum Figures in Shadow Overlap Calculations
  ,                                       !- Polygon Clipping Algorithm
  512,                                    !- Pixel Counting Resolution
  ,                                       !- Sky Diffuse Modeling Algorithm
  No,                                     !- Output External Shading Calculation Results
  No,                                     !- Disable Self-Shading Within Shading Zone Groups
  No;                                     !- Disable Self-Shading From Shading Zone Groups to Other Zones

OS:HeatBalanceAlgorithm,
  {7339e56a-e9be-424a-9301-2cb995200beb}, !- Handle
  ConductionTransferFunction,             !- Algorithm
  200;                                    !- Surface Temperature Upper Limit {C}

OS:RunPeriod,
  {119b3b53-108c-4213-a271-cf7a7b0d8678}, !- Handle
  Run Period 1,                           !- Name
  1,                                      !- Begin Month
  1,                                      !- Begin Day of Month
  12,                                     !- End Month
  31,                                     !- End Day of Month
  ,                                       !- Use Weather File Holidays and Special Days
  ,                                       !- Use Weather File Daylight Saving Period
  ,                                       !- Apply Weekend Holiday Rule
  ,                                       !- Use Weather File Rain Indicators
  ,                                       !- Use Weather File Snow Indicators
  ;                                       !- Number of Times Runperiod to be Repeated

OS:LifeCycleCost:Parameters,
  {9babc446-bd3a-4b30-b09c-8fa2fa684957}, !- Handle
  ,                                       !- Analysis Type
  ,                                       !- Discounting Convention
  ,                                       !- Inflation Approach
  ,                                       !- Real Discount Rate
  ,                                       !- Nominal Discount Rate
  ,                                       !- Inflation
  ,                                       !- Base Date Month
  ,                                       !- Base Date Year
  ,                                       !- Service Date Month
  ,                                       !- Service Date Year
  ;                                       !- Length of Study Period in Years

OS:WeatherFile,
  {741298d5-256b-44ef-9d3f-a143a3de5866}, !- Handle
  Seattle-Tacoma Intl AP,                 !- City
  WA,                                     !- State Province Region
  USA,                                    !- Country
  TMY3,                                   !- Data Source
  727930,                                 !- WMO Number
  47.443,                                 !- Latitude {deg}
  -122.306,                               !- Longitude {deg}
  -8,                                     !- Time Zone {hr}
  122,                                    !- Elevation {m}
  C:/Users/papep/ladybug_tools/resources/weather/USA_WA_Seattle-Tacoma.Intl.AP.727930_TMY3/USA_WA_Seattle-Tacoma.Intl.AP.727930_TMY3.epw, !- Url
  A31BF66A,                               !- Checksum
  ,                                       !- Start Date Actual Year
  Sunday;                                 !- Start Day of Week

OS:ScheduleTypeLimits,
  {6cdd8800-a53f-479c-ba00-1b6f6e3ebc6d}, !- Handle
  Temperature,                            !- Name
  -273.15,                                !- Lower Limit Value
  ,                                       !- Upper Limit Value
  Continuous,                             !- Numeric Type
  Temperature;                            !- Unit Type

OS:ScheduleTypeLimits,
  {2565ef09-eec5-49e6-92f1-8e38ee2c2d13}, !- Handle
  Activity Level,                         !- Name
  0,                                      !- Lower Limit Value
  ,                                       !- Upper Limit Value
  Continuous,                             !- Numeric Type
  ActivityLevel;                          !- Unit Type

OS:ScheduleTypeLimits,
  {4a762c86-308f-4947-96f2-fb7369ca8838}, !- Handle
  Fractional,                             !- Name
  0,                                      !- Lower Limit Value
  1,                                      !- Upper Limit Value
  Continuous,                             !- Numeric Type
  Dimensionless;                          !- Unit Type

OS:YearDescription,
  {022af8b9-e9d8-4d61-b9f9-a32bad4fbc0a}, !- Handle
  ,                                       !- Calendar Year
  Sunday,                                 !- Day of Week for Start Day
  No;                                     !- Is Leap Year

OS:Schedule:Ruleset,
  {0a32b82e-18c4-4fb1-9f6f-c9e1a57aa76b}, !- Handle
  ApartmentMidRise HTGSETP_APT_SCH,       !- Name
  {6cdd8800-a53f-479c-ba00-1b6f6e3ebc6d}, !- Schedule Type Limits Name
  {bb41f102-1327-4329-9a7b-9c4f77a95c79}, !- Default Day Schedule Name
  {7379009d-084c-4c32-8492-3ad06bb664df}, !- Summer Design Day Schedule Name
  {9ed6e256-67b7-41ee-a6c9-a005dc1a3ab7}; !- Winter Design Day Schedule Name

OS:Schedule:Day,
  {bb41f102-1327-4329-9a7b-9c4f77a95c79}, !- Handle
  ApartmentMidRise HTGSETP_APT_SCH_Default, !- Name
  {6cdd8800-a53f-479c-ba00-1b6f6e3ebc6d}, !- Schedule Type Limits Name
  ,                                       !- Interpolate to Timestep
  24,                                     !- Hour 1
  0,                                      !- Minute 1
  21.7;                                   !- Value Until Time 1

OS:Schedule:Day,
  {250f775c-bb02-4647-886c-9d08e8d14ea0}, !- Handle
  ApartmentMidRise HTGSETP_APT_SCH_SmrDsn, !- Name
  {6cdd8800-a53f-479c-ba00-1b6f6e3ebc6d}, !- Schedule Type Limits Name
  ,                                       !- Interpolate to Timestep
  24,                                     !- Hour 1
  0,                                      !- Minute 1
  21.7;                                   !- Value Until Time 1

OS:Schedule:Day,
  {861b1c36-d25e-44ca-99d5-441d40246189}, !- Handle
  ApartmentMidRise HTGSETP_APT_SCH_WntrDsn, !- Name
  {6cdd8800-a53f-479c-ba00-1b6f6e3ebc6d}, !- Schedule Type Limits Name
  ,                                       !- Interpolate to Timestep
  24,                                     !- Hour 1
  0,                                      !- Minute 1
  21.7;                                   !- Value Until Time 1

OS:Schedule:Day,
  {7379009d-084c-4c32-8492-3ad06bb664df}, !- Handle
  ApartmentMidRise HTGSETP_APT_SCH_SmrDsn 1, !- Name
  {6cdd8800-a53f-479c-ba00-1b6f6e3ebc6d}, !- Schedule Type Limits Name
  ,                                       !- Interpolate to Timestep
  24,                                     !- Hour 1
  0,                                      !- Minute 1
  21.7;                                   !- Value Until Time 1

OS:Schedule:Day,
  {9ed6e256-67b7-41ee-a6c9-a005dc1a3ab7}, !- Handle
  ApartmentMidRise HTGSETP_APT_SCH_WntrDsn 1, !- Name
  {6cdd8800-a53f-479c-ba00-1b6f6e3ebc6d}, !- Schedule Type Limits Name
  ,                                       !- Interpolate to Timestep
  24,                                     !- Hour 1
  0,                                      !- Minute 1
  21.7;                                   !- Value Until Time 1

OS:Schedule:Ruleset,
  {42e6ce3f-a72b-494e-b80a-082cdc06826a}, !- Handle
  ApartmentMidRise OCC_APT_SCH,           !- Name
  {4a762c86-308f-4947-96f2-fb7369ca8838}, !- Schedule Type Limits Name
  {7c40e14f-52ce-4a88-9ced-459eabe3028a}, !- Default Day Schedule Name
  {e1cfc3ef-201c-4e20-9e14-ec5b74393831}, !- Summer Design Day Schedule Name
  {0f19dba4-8beb-4bac-a0b6-fa7ac914790f}; !- Winter Design Day Schedule Name

OS:Schedule:Day,
  {7c40e14f-52ce-4a88-9ced-459eabe3028a}, !- Handle
  ApartmentMidRise OCC_APT_SCH_Default,   !- Name
  {4a762c86-308f-4947-96f2-fb7369ca8838}, !- Schedule Type Limits Name
  ,                                       !- Interpolate to Timestep
  7,                                      !- Hour 1
  0,                                      !- Minute 1
  1,                                      !- Value Until Time 1
  8,                                      !- Hour 2
  0,                                      !- Minute 2
  0.85,                                   !- Value Until Time 2
  9,                                      !- Hour 3
  0,                                      !- Minute 3
  0.39,                                   !- Value Until Time 3
  16,                                     !- Hour 4
  0,                                      !- Minute 4
  0.25,                                   !- Value Until Time 4
  17,                                     !- Hour 5
  0,                                      !- Minute 5
  0.3,                                    !- Value Until Time 5
  18,                                     !- Hour 6
  0,                                      !- Minute 6
  0.52,                                   !- Value Until Time 6
  21,                                     !- Hour 7
  0,                                      !- Minute 7
  0.87,                                   !- Value Until Time 7
  24,                                     !- Hour 8
  0,                                      !- Minute 8
  1;                                      !- Value Until Time 8

OS:Schedule:Day,
  {731d9a44-72c0-492e-8939-60337572cc27}, !- Handle
  ApartmentMidRise OCC_APT_SCH_SmrDsn,    !- Name
  {4a762c86-308f-4947-96f2-fb7369ca8838}, !- Schedule Type Limits Name
  ,                                       !- Interpolate to Timestep
  7,                                      !- Hour 1
  0,                                      !- Minute 1
  1,                                      !- Value Until Time 1
  8,                                      !- Hour 2
  0,                                      !- Minute 2
  0.85,                                   !- Value Until Time 2
  9,                                      !- Hour 3
  0,                                      !- Minute 3
  0.39,                                   !- Value Until Time 3
  16,                                     !- Hour 4
  0,                                      !- Minute 4
  0.25,                                   !- Value Until Time 4
  17,                                     !- Hour 5
  0,                                      !- Minute 5
  0.3,                                    !- Value Until Time 5
  18,                                     !- Hour 6
  0,                                      !- Minute 6
  0.52,                                   !- Value Until Time 6
  21,                                     !- Hour 7
  0,                                      !- Minute 7
  0.87,                                   !- Value Until Time 7
  24,                                     !- Hour 8
  0,                                      !- Minute 8
  1;                                      !- Value Until Time 8

OS:Schedule:Day,
  {594e5333-40c3-4f00-a762-dc9d5588d293}, !- Handle
  ApartmentMidRise OCC_APT_SCH_WntrDsn,   !- Name
  {4a762c86-308f-4947-96f2-fb7369ca8838}, !- Schedule Type Limits Name
  ,                                       !- Interpolate to Timestep
  7,                                      !- Hour 1
  0,                                      !- Minute 1
  1,                                      !- Value Until Time 1
  8,                                      !- Hour 2
  0,                                      !- Minute 2
  0.85,                                   !- Value Until Time 2
  9,                                      !- Hour 3
  0,                                      !- Minute 3
  0.39,                                   !- Value Until Time 3
  16,                                     !- Hour 4
  0,                                      !- Minute 4
  0.25,                                   !- Value Until Time 4
  17,                                     !- Hour 5
  0,                                      !- Minute 5
  0.3,                                    !- Value Until Time 5
  18,                                     !- Hour 6
  0,                                      !- Minute 6
  0.52,                                   !- Value Until Time 6
  21,                                     !- Hour 7
  0,                                      !- Minute 7
  0.87,                                   !- Value Until Time 7
  24,                                     !- Hour 8
  0,                                      !- Minute 8
  1;                                      !- Value Until Time 8

OS:Schedule:Day,
  {e1cfc3ef-201c-4e20-9e14-ec5b74393831}, !- Handle
  ApartmentMidRise OCC_APT_SCH_SmrDsn 1,  !- Name
  {4a762c86-308f-4947-96f2-fb7369ca8838}, !- Schedule Type Limits Name
  ,                                       !- Interpolate to Timestep
  7,                                      !- Hour 1
  0,                                      !- Minute 1
  1,                                      !- Value Until Time 1
  8,                                      !- Hour 2
  0,                                      !- Minute 2
  0.85,                                   !- Value Until Time 2
  9,                                      !- Hour 3
  0,                                      !- Minute 3
  0.39,                                   !- Value Until Time 3
  16,                                     !- Hour 4
  0,                                      !- Minute 4
  0.25,                                   !- Value Until Time 4
  17,                                     !- Hour 5
  0,                                      !- Minute 5
  0.3,                                    !- Value Until Time 5
  18,                                     !- Hour 6
  0,                                      !- Minute 6
  0.52,                                   !- Value Until Time 6
  21,                                     !- Hour 7
  0,                                      !- Minute 7
  0.87,                                   !- Value Until Time 7
  24,                                     !- Hour 8
  0,                                      !- Minute 8
  1;                                      !- Value Until Time 8

OS:Schedule:Day,
  {0f19dba4-8beb-4bac-a0b6-fa7ac914790f}, !- Handle
  ApartmentMidRise OCC_APT_SCH_WntrDsn 1, !- Name
  {4a762c86-308f-4947-96f2-fb7369ca8838}, !- Schedule Type Limits Name
  ,                                       !- Interpolate to Timestep
  7,                                      !- Hour 1
  0,                                      !- Minute 1
  1,                                      !- Value Until Time 1
  8,                                      !- Hour 2
  0,                                      !- Minute 2
  0.85,                                   !- Value Until Time 2
  9,                                      !- Hour 3
  0,                                      !- Minute 3
  0.39,                                   !- Value Until Time 3
  16,                                     !- Hour 4
  0,                                      !- Minute 4
  0.25,                                   !- Value Until Time 4
  17,                                     !- Hour 5
  0,                                      !- Minute 5
  0.3,                                    !- Value Until Time 5
  18,                                     !- Hour 6
  0,                                      !- Minute 6
  0.52,                                   !- Value Until Time 6
  21,                                     !- Hour 7
  0,                                      !- Minute 7
  0.87,                                   !- Value Until Time 7
  24,                                     !- Hour 8
  0,                                      !- Minute 8
  1;                                      !- Value Until Time 8

OS:Schedule:Ruleset,
  {837fcd1c-4ca8-41d9-9559-23bde2c204c0}, !- Handle
  ApartmentMidRise EQP_APT_SCH,           !- Name
  {4a762c86-308f-4947-96f2-fb7369ca8838}, !- Schedule Type Limits Name
  {534e76d3-f698-434b-a1cf-8b2f6bab87af}, !- Default Day Schedule Name
  {152783e3-98bf-403a-b092-9edc7e6d6d59}, !- Summer Design Day Schedule Name
  {bfa9a6d0-75d9-4d41-a183-bfa0b53428c6}; !- Winter Design Day Schedule Name

OS:Schedule:Day,
  {534e76d3-f698-434b-a1cf-8b2f6bab87af}, !- Handle
  ApartmentMidRise EQP_APT_SCH_Default,   !- Name
  {4a762c86-308f-4947-96f2-fb7369ca8838}, !- Schedule Type Limits Name
  ,                                       !- Interpolate to Timestep
  1,                                      !- Hour 1
  0,                                      !- Minute 1
  0.45,                                   !- Value Until Time 1
  2,                                      !- Hour 2
  0,                                      !- Minute 2
  0.41,                                   !- Value Until Time 2
  3,                                      !- Hour 3
  0,                                      !- Minute 3
  0.39,                                   !- Value Until Time 3
  5,                                      !- Hour 4
  0,                                      !- Minute 4
  0.38,                                   !- Value Until Time 4
  6,                                      !- Hour 5
  0,                                      !- Minute 5
  0.43,                                   !- Value Until Time 5
  7,                                      !- Hour 6
  0,                                      !- Minute 6
  0.54,                                   !- Value Until Time 6
  8,                                      !- Hour 7
  0,                                      !- Minute 7
  0.65,                                   !- Value Until Time 7
  9,                                      !- Hour 8
  0,                                      !- Minute 8
  0.66,                                   !- Value Until Time 8
  10,                                     !- Hour 9
  0,                                      !- Minute 9
  0.67,                                   !- Value Until Time 9
  11,                                     !- Hour 10
  0,                                      !- Minute 10
  0.69,                                   !- Value Until Time 10
  12,                                     !- Hour 11
  0,                                      !- Minute 11
  0.7,                                    !- Value Until Time 11
  13,                                     !- Hour 12
  0,                                      !- Minute 12
  0.69,                                   !- Value Until Time 12
  14,                                     !- Hour 13
  0,                                      !- Minute 13
  0.66,                                   !- Value Until Time 13
  15,                                     !- Hour 14
  0,                                      !- Minute 14
  0.65,                                   !- Value Until Time 14
  16,                                     !- Hour 15
  0,                                      !- Minute 15
  0.68,                                   !- Value Until Time 15
  17,                                     !- Hour 16
  0,                                      !- Minute 16
  0.8,                                    !- Value Until Time 16
  19,                                     !- Hour 17
  0,                                      !- Minute 17
  1,                                      !- Value Until Time 17
  20,                                     !- Hour 18
  0,                                      !- Minute 18
  0.93,                                   !- Value Until Time 18
  21,                                     !- Hour 19
  0,                                      !- Minute 19
  0.89,                                   !- Value Until Time 19
  22,                                     !- Hour 20
  0,                                      !- Minute 20
  0.85,                                   !- Value Until Time 20
  23,                                     !- Hour 21
  0,                                      !- Minute 21
  0.71,                                   !- Value Until Time 21
  24,                                     !- Hour 22
  0,                                      !- Minute 22
  0.58;                                   !- Value Until Time 22

OS:Schedule:Day,
  {499eaab7-97ea-453b-83ad-37d2cb55e9d2}, !- Handle
  ApartmentMidRise EQP_APT_SCH_SmrDsn,    !- Name
  {4a762c86-308f-4947-96f2-fb7369ca8838}, !- Schedule Type Limits Name
  ,                                       !- Interpolate to Timestep
  1,                                      !- Hour 1
  0,                                      !- Minute 1
  0.45,                                   !- Value Until Time 1
  2,                                      !- Hour 2
  0,                                      !- Minute 2
  0.41,                                   !- Value Until Time 2
  3,                                      !- Hour 3
  0,                                      !- Minute 3
  0.39,                                   !- Value Until Time 3
  5,                                      !- Hour 4
  0,                                      !- Minute 4
  0.38,                                   !- Value Until Time 4
  6,                                      !- Hour 5
  0,                                      !- Minute 5
  0.43,                                   !- Value Until Time 5
  7,                                      !- Hour 6
  0,                                      !- Minute 6
  0.54,                                   !- Value Until Time 6
  8,                                      !- Hour 7
  0,                                      !- Minute 7
  0.65,                                   !- Value Until Time 7
  9,                                      !- Hour 8
  0,                                      !- Minute 8
  0.66,                                   !- Value Until Time 8
  10,                                     !- Hour 9
  0,                                      !- Minute 9
  0.67,                                   !- Value Until Time 9
  11,                                     !- Hour 10
  0,                                      !- Minute 10
  0.69,                                   !- Value Until Time 10
  12,                                     !- Hour 11
  0,                                      !- Minute 11
  0.7,                                    !- Value Until Time 11
  13,                                     !- Hour 12
  0,                                      !- Minute 12
  0.69,                                   !- Value Until Time 12
  14,                                     !- Hour 13
  0,                                      !- Minute 13
  0.66,                                   !- Value Until Time 13
  15,                                     !- Hour 14
  0,                                      !- Minute 14
  0.65,                                   !- Value Until Time 14
  16,                                     !- Hour 15
  0,                                      !- Minute 15
  0.68,                                   !- Value Until Time 15
  17,                                     !- Hour 16
  0,                                      !- Minute 16
  0.8,                                    !- Value Until Time 16
  19,                                     !- Hour 17
  0,                                      !- Minute 17
  1,                                      !- Value Until Time 17
  20,                                     !- Hour 18
  0,                                      !- Minute 18
  0.93,                                   !- Value Until Time 18
  21,                                     !- Hour 19
  0,                                      !- Minute 19
  0.89,                                   !- Value Until Time 19
  22,                                     !- Hour 20
  0,                                      !- Minute 20
  0.85,                                   !- Value Until Time 20
  23,                                     !- Hour 21
  0,                                      !- Minute 21
  0.71,                                   !- Value Until Time 21
  24,                                     !- Hour 22
  0,                                      !- Minute 22
  0.58;                                   !- Value Until Time 22

OS:Schedule:Day,
  {61fb0c7f-58b8-4ffa-9840-7e6335919e19}, !- Handle
  ApartmentMidRise EQP_APT_SCH_WntrDsn,   !- Name
  {4a762c86-308f-4947-96f2-fb7369ca8838}, !- Schedule Type Limits Name
  ,                                       !- Interpolate to Timestep
  1,                                      !- Hour 1
  0,                                      !- Minute 1
  0.45,                                   !- Value Until Time 1
  2,                                      !- Hour 2
  0,                                      !- Minute 2
  0.41,                                   !- Value Until Time 2
  3,                                      !- Hour 3
  0,                                      !- Minute 3
  0.39,                                   !- Value Until Time 3
  5,                                      !- Hour 4
  0,                                      !- Minute 4
  0.38,                                   !- Value Until Time 4
  6,                                      !- Hour 5
  0,                                      !- Minute 5
  0.43,                                   !- Value Until Time 5
  7,                                      !- Hour 6
  0,                                      !- Minute 6
  0.54,                                   !- Value Until Time 6
  8,                                      !- Hour 7
  0,                                      !- Minute 7
  0.65,                                   !- Value Until Time 7
  9,                                      !- Hour 8
  0,                                      !- Minute 8
  0.66,                                   !- Value Until Time 8
  10,                                     !- Hour 9
  0,                                      !- Minute 9
  0.67,                                   !- Value Until Time 9
  11,                                     !- Hour 10
  0,                                      !- Minute 10
  0.69,                                   !- Value Until Time 10
  12,                                     !- Hour 11
  0,                                      !- Minute 11
  0.7,                                    !- Value Until Time 11
  13,                                     !- Hour 12
  0,                                      !- Minute 12
  0.69,                                   !- Value Until Time 12
  14,                                     !- Hour 13
  0,                                      !- Minute 13
  0.66,                                   !- Value Until Time 13
  15,                                     !- Hour 14
  0,                                      !- Minute 14
  0.65,                                   !- Value Until Time 14
  16,                                     !- Hour 15
  0,                                      !- Minute 15
  0.68,                                   !- Value Until Time 15
  17,                                     !- Hour 16