
Version,
  9.6;                                    !- Version Identifier

Timestep,
  6;                                      !- Number of Timesteps per Hour

LifeCycleCost:Parameters,
  Life Cycle Cost Parameters,             !- Name
  EndOfYear,                              !- Discounting Convention
  ConstantDollar,                         !- Inflation Approach
  0.03,                                   !- Real Discount Rate
  ,                                       !- Nominal Discount Rate
  ,                                       !- Inflation
  ,                                       !- Base Date Month
  2011,                                   !- Base Date Year
  ,                                       !- Service Date Month
  2011,                                   !- Service Date Year
  25,                                     !- Length of Study Period in Years
  ,                                       !- Tax rate
  None;                                   !- Depreciation Method

LifeCycleCost:UsePriceEscalation,
  U.S. Avg  Commercial-Electricity,       !- Name
  Electricity,                            !- Resource
  2011,                                   !- Escalation Start Year
  January,                                !- Escalation Start Month
  0.9838,                                 !- Year Escalation 1
  0.9730,                                 !- Year Escalation 2
  0.9632,                                 !- Year Escalation 3
  0.9611,                                 !- Year Escalation 4
  0.9571,                                 !- Year Escalation 5
  0.9553,                                 !- Year Escalation 6
  0.9539,                                 !- Year Escalation 7
  0.9521,                                 !- Year Escalation 8
  0.9546,                                 !- Year Escalation 9
  0.9550,                                 !- Year Escalation 10
  0.9553,                                 !- Year Escalation 11
  0.9564,                                 !- Year Escalation 12
  0.9575,                                 !- Year Escalation 13
  0.9596,                                 !- Year Escalation 14
  0.9618,                                 !- Year Escalation 15
  0.9614,                                 !- Year Escalation 16
  0.9618,                                 !- Year Escalation 17
  0.9618,                                 !- Year Escalation 18
  0.9593,                                 !- Year Escalation 19
  0.9589,                                 !- Year Escalation 20
  0.9607,                                 !- Year Escalation 21
  0.9625,                                 !- Year Escalation 22
  0.9650,                                 !- Year Escalation 23
  0.9708,                                 !- Year Escalation 24
  0.9751,                                 !- Year Escalation 25
  0.9762,                                 !- Year Escalation 26
  0.9766,                                 !- Year Escalation 27
  0.9766,                                 !- Year Escalation 28
  0.9769,                                 !- Year Escalation 29
  0.9773;                                 !- Year Escalation 30

LifeCycleCost:UsePriceEscalation,
  U.S. Avg  Commercial-Distillate Oil,    !- Name
  FuelOilNo1,                             !- Resource
  2011,                                   !- Escalation Start Year
  January,                                !- Escalation Start Month
  0.9714,                                 !- Year Escalation 1
  0.9730,                                 !- Year Escalation 2
  0.9942,                                 !- Year Escalation 3
  1.0164,                                 !- Year Escalation 4
  1.0541,                                 !- Year Escalation 5
  1.0928,                                 !- Year Escalation 6
  1.1267,                                 !- Year Escalation 7
  1.1580,                                 !- Year Escalation 8
  1.1792,                                 !- Year Escalation 9
  1.1967,                                 !- Year Escalation 10
  1.2200,                                 !- Year Escalation 11
  1.2333,                                 !- Year Escalation 12
  1.2566,                                 !- Year Escalation 13
  1.2709,                                 !- Year Escalation 14
  1.2826,                                 !- Year Escalation 15
  1.2985,                                 !- Year Escalation 16
  1.3102,                                 !- Year Escalation 17
  1.3250,                                 !- Year Escalation 18
  1.3261,                                 !- Year Escalation 19
  1.3282,                                 !- Year Escalation 20
  1.3324,                                 !- Year Escalation 21
  1.3356,                                 !- Year Escalation 22
  1.3431,                                 !- Year Escalation 23
  1.3510,                                 !- Year Escalation 24
  1.3568,                                 !- Year Escalation 25
  1.3606,                                 !- Year Escalation 26
  1.3637,                                 !- Year Escalation 27
  1.3674,                                 !- Year Escalation 28
  1.3706,                                 !- Year Escalation 29
  1.3743;                                 !- Year Escalation 30

LifeCycleCost:UsePriceEscalation,
  U.S. Avg  Commercial-Residual Oil,      !- Name
  FuelOilNo2,                             !- Resource
  2011,                                   !- Escalation Start Year
  January,                                !- Escalation Start Month
  0.8469,                                 !- Year Escalation 1
  0.8257,                                 !- Year Escalation 2
  0.8681,                                 !- Year Escalation 3
  0.8988,                                 !- Year Escalation 4
  0.9289,                                 !- Year Escalation 5
  0.9604,                                 !- Year Escalation 6
  0.9897,                                 !- Year Escalation 7
  1.0075,                                 !- Year Escalation 8
  1.0314,                                 !- Year Escalation 9
  1.0554,                                 !- Year Escalation 10
  1.0861,                                 !- Year Escalation 11
  1.1278,                                 !- Year Escalation 12
  1.1497,                                 !- Year Escalation 13
  1.1620,                                 !- Year Escalation 14
  1.1743,                                 !- Year Escalation 15
  1.1852,                                 !- Year Escalation 16
  1.1948,                                 !- Year Escalation 17
  1.2037,                                 !- Year Escalation 18
  1.2071,                                 !- Year Escalation 19
  1.2119,                                 !- Year Escalation 20
  1.2139,                                 !- Year Escalation 21
  1.2194,                                 !- Year Escalation 22
  1.2276,                                 !- Year Escalation 23
  1.2365,                                 !- Year Escalation 24
  1.2420,                                 !- Year Escalation 25
  1.2461,                                 !- Year Escalation 26
  1.2509,                                 !- Year Escalation 27
  1.2550,                                 !- Year Escalation 28
  1.2591,                                 !- Year Escalation 29
  1.2638;                                 !- Year Escalation 30

LifeCycleCost:UsePriceEscalation,
  U.S. Avg  Commercial-Natural gas,       !- Name
  NaturalGas,                             !- Resource
  2011,                                   !- Escalation Start Year
  January,                                !- Escalation Start Month
  0.9823,                                 !- Year Escalation 1
  0.9557,                                 !- Year Escalation 2
  0.9279,                                 !- Year Escalation 3
  0.9257,                                 !- Year Escalation 4
  0.9346,                                 !- Year Escalation 5
  0.9412,                                 !- Year Escalation 6
  0.9512,                                 !- Year Escalation 7
  0.9645,                                 !- Year Escalation 8
  0.9856,                                 !- Year Escalation 9
  1.0067,                                 !- Year Escalation 10
  1.0222,                                 !- Year Escalation 11
  1.0410,                                 !- Year Escalation 12
  1.0610,                                 !- Year Escalation 13
  1.0787,                                 !- Year Escalation 14
  1.0942,                                 !- Year Escalation 15
  1.1098,                                 !- Year Escalation 16
  1.1220,                                 !- Year Escalation 17
  1.1308,                                 !- Year Escalation 18
  1.1386,                                 !- Year Escalation 19
  1.1486,                                 !- Year Escalation 20
  1.1619,                                 !- Year Escalation 21
  1.1763,                                 !- Year Escalation 22
  1.1918,                                 !- Year Escalation 23
  1.2118,                                 !- Year Escalation 24
  1.2284,                                 !- Year Escalation 25
  1.2439,                                 !- Year Escalation 26
  1.2605,                                 !- Year Escalation 27
  1.2772,                                 !- Year Escalation 28
  1.2938,                                 !- Year Escalation 29
  1.3115;                                 !- Year Escalation 30

LifeCycleCost:UsePriceEscalation,
  U.S. Avg  Commercial-Coal,              !- Name
  Coal,                                   !- Resource
  2011,                                   !- Escalation Start Year
  January,                                !- Escalation Start Month
  0.9970,                                 !- Year Escalation 1
  1.0089,                                 !- Year Escalation 2
  1.0089,                                 !- Year Escalation 3
  0.9941,                                 !- Year Escalation 4
  0.9941,                                 !- Year Escalation 5
  1.0000,                                 !- Year Escalation 6
  1.0030,                                 !- Year Escalation 7
  1.0059,                                 !- Year Escalation 8
  1.0089,                                 !- Year Escalation 9
  1.0119,                                 !- Year Escalation 10
  1.0148,                                 !- Year Escalation 11
  1.0178,                                 !- Year Escalation 12
  1.0208,                                 !- Year Escalation 13
  1.0267,                                 !- Year Escalation 14
  1.0297,                                 !- Year Escalation 15
  1.0356,                                 !- Year Escalation 16
  1.0415,                                 !- Year Escalation 17
  1.0534,                                 !- Year Escalation 18
  1.0564,                                 !- Year Escalation 19
  1.0593,                                 !- Year Escalation 20
  1.0653,                                 !- Year Escalation 21
  1.0712,                                 !- Year Escalation 22
  1.0742,                                 !- Year Escalation 23
  1.0801,                                 !- Year Escalation 24
  1.0831,                                 !- Year Escalation 25
  1.0831,                                 !- Year Escalation 26
  1.0861,                                 !- Year Escalation 27
  1.0890,                                 !- Year Escalation 28
  1.0920,                                 !- Year Escalation 29
  1.0950;                                 !- Year Escalation 30

Building,
  Building 1,                             !- Name
  270,                                    !- North Axis {deg}
  City,                                   !- Terrain
  ,                                       !- Loads Convergence Tolerance Value {W}
  ,                                       !- Temperature Convergence Tolerance Value {deltaC}
  FullExteriorWithReflections,            !- Solar Distribution
  ,                                       !- Maximum Number of Warmup Days
  ;                                       !- Minimum Number of Warmup Days

Shading:Building:Detailed,
  Shade_21430225_0,                       !- Name
  ,                                       !- Transmittance Schedule Name
  ,                                       !- Number of Vertices
  17.2165806361034, -9.35351208375523, 6.1, !- X,Y,Z Vertex 1 {m}
  17.2165806361034, -9.35351208375523, 0, !- X,Y,Z Vertex 2 {m}
  9.88015777517932, -9.1590964010853, 0,  !- X,Y,Z Vertex 3 {m}
  9.88015777517932, -9.1590964010853, 6.1; !- X,Y,Z Vertex 4 {m}

Shading:Building:Detailed,
  Shade_21430225_1,                       !- Name
  ,                                       !- Transmittance Schedule Name
  ,                                       !- Number of Vertices
  9.88015777517932, -9.1590964010853, 6.1, !- X,Y,Z Vertex 1 {m}
  9.88015777517932, -9.1590964010853, 0,  !- X,Y,Z Vertex 2 {m}
  9.88015777517932, -11.0175628738947, 0, !- X,Y,Z Vertex 3 {m}
  9.88015777517932, -11.0175628738947, 6.1; !- X,Y,Z Vertex 4 {m}

Shading:Building:Detailed,
  Shade_21430225_10,                      !- Name
  ,                                       !- Transmittance Schedule Name
  ,                                       !- Number of Vertices
  17.8405996824057, -11.0175628738947, 6.1, !- X,Y,Z Vertex 1 {m}
  17.8405996824057, -11.0175628738947, 0, !- X,Y,Z Vertex 2 {m}
  17.2165806361034, -11.0175628738947, 0, !- X,Y,Z Vertex 3 {m}
  17.2165806361034, -11.0175628738947, 6.1; !- X,Y,Z Vertex 4 {m}

Shading:Building:Detailed,
  Shade_21430225_11,                      !- Name
  ,                                       !- Transmittance Schedule Name
  ,                                       !- Number of Vertices
  17.2165806361034, -11.0175628738947, 6.1, !- X,Y,Z Vertex 1 {m}
  17.2165806361034, -11.0175628738947, 0, !- X,Y,Z Vertex 2 {m}
  17.2165806361034, -9.35351208375523, 0, !- X,Y,Z Vertex 3 {m}
  17.2165806361034, -9.35351208375523, 6.1; !- X,Y,Z Vertex 4 {m}

Shading:Building:Detailed,
  Shade_21430225_12,                      !- Name
  ,                                       !- Transmittance Schedule Name
  ,                                       !- Number of Vertices
  17.2165806361034, -9.35351208375523, 0, !- X,Y,Z Vertex 1 {m}
  17.2165806361034, -11.0175628738947, 0, !- X,Y,Z Vertex 2 {m}
  17.8405996824057, -11.0175628738947, 0, !- X,Y,Z Vertex 3 {m}
  17.651503001708, -26.3154843423362, 0,  !- X,Y,Z Vertex 4 {m}
  9.3690683871501, -26.3154843423362, 0,  !- X,Y,Z Vertex 5 {m}
  9.5959844039873, -15.1587801811737, 0,  !- X,Y,Z Vertex 6 {m}
  8.06430129033617, -15.1398705131039, 0, !- X,Y,Z Vertex 7 {m}
  8.13993996261525, -11.6604915882668, 0, !- X,Y,Z Vertex 8 {m}
  9.65271340819661, -11.641581920197, 0,  !- X,Y,Z Vertex 9 {m}
  9.65271340819661, -11.0175628738947, 0, !- X,Y,Z Vertex 10 {m}
  9.88015777517932, -11.0175628738947, 0, !- X,Y,Z Vertex 11 {m}
  9.88015777517932, -9.1590964010853, 0;  !- X,Y,Z Vertex 12 {m}

Shading:Building:Detailed,
  Shade_21430225_13,                      !- Name
  ,                                       !- Transmittance Schedule Name
  ,                                       !- Number of Vertices
  9.88015777517932, -9.1590964010853, 6.1, !- X,Y,Z Vertex 1 {m}
  9.88015777517932, -11.0175628738947, 6.1, !- X,Y,Z Vertex 2 {m}
  9.65271340819661, -11.0175628738947, 6.1, !- X,Y,Z Vertex 3 {m}
  9.65271340819661, -11.641581920197, 6.1, !- X,Y,Z Vertex 4 {m}
  8.13993996261525, -11.6604915882668, 6.1, !- X,Y,Z Vertex 5 {m}
  8.06430129033617, -15.1398705131039, 6.1, !- X,Y,Z Vertex 6 {m}
  9.5959844039873, -15.1587801811737, 6.1, !- X,Y,Z Vertex 7 {m}
  9.3690683871501, -26.3154843423362, 6.1, !- X,Y,Z Vertex 8 {m}
  17.651503001708, -26.3154843423362, 6.1, !- X,Y,Z Vertex 9 {m}
  17.8405996824057, -11.0175628738947, 6.1, !- X,Y,Z Vertex 10 {m}
  17.2165806361034, -11.0175628738947, 6.1, !- X,Y,Z Vertex 11 {m}
  17.2165806361034, -9.35351208375523, 6.1; !- X,Y,Z Vertex 12 {m}

Shading:Building:Detailed,
  Shade_21430225_2,                       !- Name
  ,                                       !- Transmittance Schedule Name
  ,                                       !- Number of Vertices
  9.88015777517932, -11.0175628738947, 6.1, !- X,Y,Z Vertex 1 {m}
  9.88015777517932, -11.0175628738947, 0, !- X,Y,Z Vertex 2 {m}
  9.65271340819661, -11.0175628738947, 0, !- X,Y,Z Vertex 3 {m}
  9.65271340819661, -11.0175628738947, 6.1; !- X,Y,Z Vertex 4 {m}

Shading:Building:Detailed,
  Shade_21430225_3,                       !- Name
  ,                                       !- Transmittance Schedule Name
  ,                                       !- Number of Vertices
  9.65271340819661, -11.0175628738947, 6.1, !- X,Y,Z Vertex 1 {m}
  9.65271340819661, -11.0175628738947, 0, !- X,Y,Z Vertex 2 {m}
  9.65271340819661, -11.641581920197, 0,  !- X,Y,Z Vertex 3 {m}
  9.65271340819661, -11.641581920197, 6.1; !- X,Y,Z Vertex 4 {m}

Shading:Building:Detailed,
  Shade_21430225_4,                       !- Name
  ,                                       !- Transmittance Schedule Name
  ,                                       !- Number of Vertices
  9.65271340819661, -11.641581920197, 6.1, !- X,Y,Z Vertex 1 {m}
  9.65271340819661, -11.641581920197, 0,  !- X,Y,Z Vertex 2 {m}
  8.13993996261525, -11.6604915882668, 0, !- X,Y,Z Vertex 3 {m}
  8.13993996261525, -11.6604915882668, 6.1; !- X,Y,Z Vertex 4 {m}

Shading:Building:Detailed,
  Shade_21430225_5,                       !- Name
  ,                                       !- Transmittance Schedule Name
  ,                                       !- Number of Vertices
  8.13993996261525, -11.6604915882668, 6.1, !- X,Y,Z Vertex 1 {m}
  8.13993996261525, -11.6604915882668, 0, !- X,Y,Z Vertex 2 {m}
  8.06430129033617, -15.1398705131039, 0, !- X,Y,Z Vertex 3 {m}
  8.06430129033617, -15.1398705131039, 6.1; !- X,Y,Z Vertex 4 {m}

Shading:Building:Detailed,
  Shade_21430225_6,                       !- Name
  ,                                       !- Transmittance Schedule Name
  ,                                       !- Number of Vertices
  8.06430129033617, -15.1398705131039, 6.1, !- X,Y,Z Vertex 1 {m}
  8.06430129033617, -15.1398705131039, 0, !- X,Y,Z Vertex 2 {m}
  9.5959844039873, -15.1587801811737, 0,  !- X,Y,Z Vertex 3 {m}
  9.5959844039873, -15.1587801811737, 6.1; !- X,Y,Z Vertex 4 {m}

Shading:Building:Detailed,
  Shade_21430225_7,                       !- Name
  ,                                       !- Transmittance Schedule Name
  ,                                       !- Number of Vertices
  9.5959844039873, -15.1587801811737, 6.1, !- X,Y,Z Vertex 1 {m}
  9.5959844039873, -15.1587801811737, 0,  !- X,Y,Z Vertex 2 {m}
  9.3690683871501, -26.3154843423362, 0,  !- X,Y,Z Vertex 3 {m}
  9.3690683871501, -26.3154843423362, 6.1; !- X,Y,Z Vertex 4 {m}

Shading:Building:Detailed,
  Shade_21430225_8,                       !- Name
  ,                                       !- Transmittance Schedule Name
  ,                                       !- Number of Vertices
  9.3690683871501, -26.3154843423362, 6.1, !- X,Y,Z Vertex 1 {m}
  9.3690683871501, -26.3154843423362, 0,  !- X,Y,Z Vertex 2 {m}
  17.651503001708, -26.3154843423362, 0,  !- X,Y,Z Vertex 3 {m}
  17.651503001708, -26.3154843423362, 6.1; !- X,Y,Z Vertex 4 {m}

Shading:Building:Detailed,
  Shade_21430225_9,                       !- Name
  ,                                       !- Transmittance Schedule Name
  ,                                       !- Number of Vertices
  17.651503001708, -26.3154843423362, 6.1, !- X,Y,Z Vertex 1 {m}
  17.651503001708, -26.3154843423362, 0,  !- X,Y,Z Vertex 2 {m}
  17.8405996824057, -11.0175628738947, 0, !- X,Y,Z Vertex 3 {m}
  17.8405996824057, -11.0175628738947, 6.1; !- X,Y,Z Vertex 4 {m}

Shading:Building:Detailed,
  Shade_47093440_0,                       !- Name
  ,                                       !- Transmittance Schedule Name
  ,                                       !- Number of Vertices
  -0.246710345078238, 7.22905231765415, 3.05, !- X,Y,Z Vertex 1 {m}
  -0.246710345078238, 7.22905231765415, 0, !- X,Y,Z Vertex 2 {m}
  -2.38065125901698, 7.17942578477185, 0, !- X,Y,Z Vertex 3 {m}
  -2.38065125901698, 7.17942578477185, 3.05; !- X,Y,Z Vertex 4 {m}

Shading:Building:Detailed,
  Shade_47093440_1,                       !- Name
  ,                                       !- Transmittance Schedule Name
  ,                                       !- Number of Vertices
  -2.38065125901698, 7.17942578477185, 3.05, !- X,Y,Z Vertex 1 {m}
  -2.38065125901698, 7.17942578477185, 0, !- X,Y,Z Vertex 2 {m}
  -2.38065125901698, 4.21424044505464, 0, !- X,Y,Z Vertex 3 {m}
  -2.38065125901698, 4.21424044505464, 3.05; !- X,Y,Z Vertex 4 {m}

Shading:Building:Detailed,
  Shade_47093440_2,                       !- Name
  ,                                       !- Transmittance Schedule Name
  ,                                       !- Number of Vertices
  -2.38065125901698, 4.21424044505464, 3.05, !- X,Y,Z Vertex 1 {m}
  -2.38065125901698, 4.21424044505464, 0, !- X,Y,Z Vertex 2 {m}
  -0.246710345078238, 4.21424044505464, 0, !- X,Y,Z Vertex 3 {m}
  -0.246710345078238, 4.21424044505464, 3.05; !- X,Y,Z Vertex 4 {m}

Shading:Building:Detailed,
  Shade_47093440_3,                       !- Name
  ,                                       !- Transmittance Schedule Name
  ,                                       !- Number of Vertices
  -0.246710345078238, 4.21424044505464, 3.05, !- X,Y,Z Vertex 1 {m}
  -0.246710345078238, 4.21424044505464, 0, !- X,Y,Z Vertex 2 {m}
  -0.246710345078238, 7.22905231765415, 0, !- X,Y,Z Vertex 3 {m}
  -0.246710345078238, 7.22905231765415, 3.05; !- X,Y,Z Vertex 4 {m}

Shading:Building:Detailed,
  Shade_47093440_4,                       !- Name
  ,                                       !- Transmittance Schedule Name
  ,                                       !- Number of Vertices
  -0.246710345078238, 7.22905231765415, 0, !- X,Y,Z Vertex 1 {m}
  -0.246710345078238, 4.21424044505464, 0, !- X,Y,Z Vertex 2 {m}
  -2.38065125901698, 4.21424044505464, 0, !- X,Y,Z Vertex 3 {m}
  -2.38065125901698, 7.17942578477185, 0; !- X,Y,Z Vertex 4 {m}

Shading:Building:Detailed,
  Shade_47093440_5,                       !- Name
  ,                                       !- Transmittance Schedule Name
  ,                                       !- Number of Vertices
  -2.38065125901698, 7.17942578477185, 3.05, !- X,Y,Z Vertex 1 {m}
  -2.38065125901698, 4.21424044505464, 3.05, !- X,Y,Z Vertex 2 {m}
  -0.246710345078238, 4.21424044505464, 3.05, !- X,Y,Z Vertex 3 {m}
  -0.246710345078238, 7.22905231765415, 3.05; !- X,Y,Z Vertex 4 {m}

Shading:Building:Detailed,
  Shade_65daf65b_0,                       !- Name
  ,                                       !- Transmittance Schedule Name
  ,                                       !- Number of Vertices
  -3.67375686139927, 2.28496600267787, 3.05, !- X,Y,Z Vertex 1 {m}
  -3.67375686139927, 2.28496600267787, 0, !- X,Y,Z Vertex 2 {m}
  -5.26276471065468, 2.23221885415488, 0, !- X,Y,Z Vertex 3 {m}
  -5.26276471065468, 2.23221885415488, 3.05; !- X,Y,Z Vertex 4 {m}

Shading:Building:Detailed,
  Shade_65daf65b_1,                       !- Name
  ,                                       !- Transmittance Schedule Name
  ,                                       !- Number of Vertices
  -5.26276471065468, 2.23221885415488, 3.05, !- X,Y,Z Vertex 1 {m}
  -5.26276471065468, 2.23221885415488, 0, !- X,Y,Z Vertex 2 {m}
  -5.26276471065468, 0.99925425742973, 0, !- X,Y,Z Vertex 3 {m}
  -5.26276471065468, 0.99925425742973, 3.05; !- X,Y,Z Vertex 4 {m}

Shading:Building:Detailed,
  Shade_65daf65b_2,                       !- Name
  ,                                       !- Transmittance Schedule Name
  ,                                       !- Number of Vertices
  -5.26276471065468, 0.99925425742973, 3.05, !- X,Y,Z Vertex 1 {m}
  -5.26276471065468, 0.99925425742973, 0, !- X,Y,Z Vertex 2 {m}
  -3.67375686139927, 0.99925425742973, 0, !- X,Y,Z Vertex 3 {m}
  -3.67375686139927, 0.99925425742973, 3.05; !- X,Y,Z Vertex 4 {m}

Shading:Building:Detailed,
  Shade_65daf65b_3,                       !- Name
  ,                                       !- Transmittance Schedule Name
  ,                                       !- Number of Vertices
  -3.67375686139927, 0.99925425742973, 3.05, !- X,Y,Z Vertex 1 {m}
  -3.67375686139927, 0.99925425742973, 0, !- X,Y,Z Vertex 2 {m}
  -3.67375686139927, 2.28496600267787, 0, !- X,Y,Z Vertex 3 {m}
  -3.67375686139927, 2.28496600267787, 3.05; !- X,Y,Z Vertex 4 {m}

Shading:Building:Detailed,
  Shade_65daf65b_4,                       !- Name
  ,                                       !- Transmittance Schedule Name
  ,                                       !- Number of Vertices
  -3.67375686139927, 2.28496600267787, 0, !- X,Y,Z Vertex 1 {m}
  -3.67375686139927, 0.99925425742973, 0, !- X,Y,Z Vertex 2 {m}
  -5.26276471065468, 0.99925425742973, 0, !- X,Y,Z Vertex 3 {m}
  -5.26276471065468, 2.23221885415488, 0; !- X,Y,Z Vertex 4 {m}

Shading:Building:Detailed,
  Shade_65daf65b_5,                       !- Name
  ,                                       !- Transmittance Schedule Name
  ,                                       !- Number of Vertices
  -5.26276471065468, 2.23221885415488, 3.05, !- X,Y,Z Vertex 1 {m}
  -5.26276471065468, 0.99925425742973, 3.05, !- X,Y,Z Vertex 2 {m}
  -3.67375686139927, 0.99925425742973, 3.05, !- X,Y,Z Vertex 3 {m}
  -3.67375686139927, 2.28496600267787, 3.05; !- X,Y,Z Vertex 4 {m}

Shading:Building:Detailed,
  Shade_67a5ee63_0,                       !- Name
  ,                                       !- Transmittance Schedule Name
  ,                                       !- Number of Vertices
  13.2832837969645, 27.0852444501717, 6.1, !- X,Y,Z Vertex 1 {m}
  13.2832837969645, 27.0852444501717, 0,  !- X,Y,Z Vertex 2 {m}
  12.6214454145226, 27.1041541182415, 0,  !- X,Y,Z Vertex 3 {m}
  12.6214454145226, 27.1041541182415, 6.1; !- X,Y,Z Vertex 4 {m}

Shading:Building:Detailed,
  Shade_67a5ee63_1,                       !- Name
  ,                                       !- Transmittance Schedule Name
  ,                                       !- Number of Vertices
  12.6214454145226, 27.1041541182415, 6.1, !- X,Y,Z Vertex 1 {m}
  12.6214454145226, 27.1041541182415, 0,  !- X,Y,Z Vertex 2 {m}
  12.6025357464529, 27.8794505091019, 0,  !- X,Y,Z Vertex 3 {m}
  12.6025357464529, 27.8794505091019, 6.1; !- X,Y,Z Vertex 4 {m}

Shading:Building:Detailed,
  Shade_67a5ee63_10,                      !- Name
  ,                                       !- Transmittance Schedule Name
  ,                                       !- Number of Vertices
  3.20443071577868, 14.9263278813116, 6.1, !- X,Y,Z Vertex 1 {m}
  3.20443071577868, 14.9263278813116, 0,  !- X,Y,Z Vertex 2 {m}
  13.2076451246854, 14.888508545172, 0,   !- X,Y,Z Vertex 3 {m}
  13.2076451246854, 14.888508545172, 6.1; !- X,Y,Z Vertex 4 {m}

Shading:Building:Detailed,
  Shade_67a5ee63_11,                      !- Name
  ,                                       !- Transmittance Schedule Name
  ,                                       !- Number of Vertices
  13.2076451246854, 14.888508545172, 6.1, !- X,Y,Z Vertex 1 {m}
  13.2076451246854, 14.888508545172, 0,   !- X,Y,Z Vertex 2 {m}
  13.2832837969645, 27.0852444501717, 0,  !- X,Y,Z Vertex 3 {m}
  13.2832837969645, 27.0852444501717, 6.1; !- X,Y,Z Vertex 4 {m}

Shading:Building:Detailed,
  Shade_67a5ee63_12,                      !- Name
  ,                                       !- Transmittance Schedule Name
  ,                                       !- Number of Vertices
  12.6025357464529, 27.8794505091019, 0,  !- X,Y,Z Vertex 1 {m}
  12.6214454145226, 27.1041541182415, 0,  !- X,Y,Z Vertex 2 {m}
  13.2832837969645, 27.0852444501717, 0,  !- X,Y,Z Vertex 3 {m}
  13.2076451246854, 14.888508545172, 0,   !- X,Y,Z Vertex 4 {m}
  3.20443071577868, 14.9263278813116, 0,  !- X,Y,Z Vertex 5 {m}
  3.26115971998799, 27.2365217947299, 0,  !- X,Y,Z Vertex 6 {m}
  3.75281108980193, 27.2365217947299, 0,  !- X,Y,Z Vertex 7 {m}
  3.75281108980193, 27.8227215048926, 0,  !- X,Y,Z Vertex 8 {m}
  5.54922955642979, 27.8416311729624, 0,  !- X,Y,Z Vertex 9 {m}
  5.53031988836003, 27.141973454381, 0,   !- X,Y,Z Vertex 10 {m}
  10.8439366159645, 27.1230637863113, 0,  !- X,Y,Z Vertex 11 {m}
  10.9195752882436, 27.8794505091019, 0;  !- X,Y,Z Vertex 12 {m}

Shading:Building:Detailed,
  Shade_67a5ee63_13,                      !- Name
  ,                                       !- Transmittance Schedule Name
  ,                                       !- Number of Vertices
  3.75281108980193, 27.8227215048926, 6.1, !- X,Y,Z Vertex 1 {m}
  3.75281108980193, 27.2365217947299, 6.1, !- X,Y,Z Vertex 2 {m}
  3.26115971998799, 27.2365217947299, 6.1, !- X,Y,Z Vertex 3 {m}
  3.20443071577868, 14.9263278813116, 6.1, !- X,Y,Z Vertex 4 {m}
  13.2076451246854, 14.888508545172, 6.1, !- X,Y,Z Vertex 5 {m}
  13.2832837969645, 27.0852444501717, 6.1, !- X,Y,Z Vertex 6 {m}
  12.6214454145226, 27.1041541182415, 6.1, !- X,Y,Z Vertex 7 {m}
  12.6025357464529, 27.8794505091019, 6.1, !- X,Y,Z Vertex 8 {m}
  10.9195752882436, 27.8794505091019, 6.1, !- X,Y,Z Vertex 9 {m}
  10.8439366159645, 27.1230637863113, 6.1, !- X,Y,Z Vertex 10 {m}
  5.53031988836003, 27.141973454381, 6.1, !- X,Y,Z Vertex 11 {m}
  5.54922955642979, 27.8416311729624, 6.1; !- X,Y,Z Vertex 12 {m}

Shading:Building:Detailed,
  Shade_67a5ee63_2,                       !- Name
  ,                                       !- Transmittance Schedule Name
  ,                                       !- Number of Vertices