
OS:Version,
  {7b9b32c5-f82b-4ac5-8290-e2a6d9295479}, !- Handle
  3.3.0;                                  !- Version Identifier

OS:Building,
  {b591250c-503b-45c8-b14b-f2b444dadf5d}, !- Handle
  Building 1,                             !- Name
  ,                                       !- Building Sector Type
  90,                                     !- North Axis {deg}
  ,                                       !- Nominal Floor to Floor Height {m}
  ,                                       !- Space Type Name
  {25fc0000-0f71-4472-afdb-6c201782a589}, !- Default Construction Set Name
  ,                                       !- Default Schedule Set Name
  ,                                       !- Standards Number of Stories
  ,                                       !- Standards Number of Above Ground Stories
  ,                                       !- Standards Template
  MediumOffice;                           !- Standards Building Type

OS:Facility,
  {7025a247-7093-430e-8ce1-928a14fb4d58}; !- Handle

OS:Site,
  {65b88864-026c-4827-9c92-329fd8e826ff}, !- Handle
  Site 1,                                 !- Name
  ,                                       !- Latitude {deg}
  ,                                       !- Longitude {deg}
  ,                                       !- Time Zone {hr}
  ,                                       !- Elevation {m}
  City;                                   !- Terrain

OS:SimulationControl,
  {9e65d6f5-8ce6-45bb-821e-f7c9a1fbaca9}, !- Handle
  Yes,                                    !- Do Zone Sizing Calculation
  Yes,                                    !- Do System Sizing Calculation
  Yes,                                    !- Do Plant Sizing Calculation
  No,                                     !- Run Simulation for Sizing Periods
  Yes,                                    !- Run Simulation for Weather File Run Periods
  ,                                       !- Loads Convergence Tolerance Value {W}
  ,                                       !- Temperature Convergence Tolerance Value {deltaC}
  FullExteriorWithReflections;            !- Solar Distribution

OS:Sizing:Parameters,
  {29ee618f-2724-44c5-bc5f-caac20dfab27}, !- Handle
  1.25,                                   !- Heating Sizing Factor
  1.15;                                   !- Cooling Sizing Factor

OS:Timestep,
  {7ca8694d-f1ab-457c-b537-c1c3a7a9eaee}, !- Handle
  6;                                      !- Number of Timesteps per Hour

OS:ShadowCalculation,
  {538f7c47-7d4c-4e80-bc47-7a0f7c863760}, !- Handle
  PolygonClipping,                        !- Shading Calculation Method
  Periodic,                               !- Shading Calculation Update Frequency Method
  30,                                     !- Shading Calculation Update Frequency
  15000,                                  !- Maximum Figures in Shadow Overlap Calculations
  ,                                       !- Polygon Clipping Algorithm
  512,                                    !- Pixel Counting Resolution
  ,                                       !- Sky Diffuse Modeling Algorithm
  No,                                     !- Output External Shading Calculation Results
  No,                                     !- Disable Self-Shading Within Shading Zone Groups
  No;                                     !- Disable Self-Shading From Shading Zone Groups to Other Zones

OS:HeatBalanceAlgorithm,
  {9127a7e4-1da9-418e-9442-2311d240b166}, !- Handle
  ConductionTransferFunction,             !- Algorithm
  200;                                    !- Surface Temperature Upper Limit {C}

OS:RunPeriod,
  {3bbe6764-eeab-461f-ada4-c3031685b349}, !- Handle
  Run Period 1,                           !- Name
  1,                                      !- Begin Month
  1,                                      !- Begin Day of Month
  12,                                     !- End Month
  31,                                     !- End Day of Month
  ,                                       !- Use Weather File Holidays and Special Days
  ,                                       !- Use Weather File Daylight Saving Period
  ,                                       !- Apply Weekend Holiday Rule
  ,                                       !- Use Weather File Rain Indicators
  ,                                       !- Use Weather File Snow Indicators
  ;                                       !- Number of Times Runperiod to be Repeated

OS:LifeCycleCost:Parameters,
  {9dd06b58-5950-41b4-b1cb-c238e7b0b83b}, !- Handle
  ,                                       !- Analysis Type
  ,                                       !- Discounting Convention
  ,                                       !- Inflation Approach
  ,                                       !- Real Discount Rate
  ,                                       !- Nominal Discount Rate
  ,                                       !- Inflation
  ,                                       !- Base Date Month
  ,                                       !- Base Date Year
  ,                                       !- Service Date Month
  ,                                       !- Service Date Year
  ;                                       !- Length of Study Period in Years

OS:WeatherFile,
  {cab22ec8-e316-40aa-abf6-203ac2d2a6f3}, !- Handle
  Seattle Seattle Tacoma Intl A,          !- City
  WA,                                     !- State Province Region
  USA,                                    !- Country
  TMY3,                                   !- Data Source
  727930,                                 !- WMO Number
  47.47,                                  !- Latitude {deg}
  -122.32,                                !- Longitude {deg}
  -8,                                     !- Time Zone {hr}
  122,                                    !- Elevation {m}
  C:/Users/papep/Documents/GitHub/msdc-thesis/tool/data/USA_WA_Seattle-Tacoma.Intl.AP.727930_TMY3.epw, !- Url
  92912389,                               !- Checksum
  ,                                       !- Start Date Actual Year
  Sunday;                                 !- Start Day of Week

OS:ScheduleTypeLimits,
  {a0b9877b-fef7-4f97-a96d-5a42965d4a77}, !- Handle
  Temperature,                            !- Name
  -273.15,                                !- Lower Limit Value
  ,                                       !- Upper Limit Value
  Continuous,                             !- Numeric Type
  Temperature;                            !- Unit Type

OS:ScheduleTypeLimits,
  {8809b78c-9832-454c-a3a9-c6eae06736ee}, !- Handle
  Activity Level,                         !- Name
  0,                                      !- Lower Limit Value
  ,                                       !- Upper Limit Value
  Continuous,                             !- Numeric Type
  ActivityLevel;                          !- Unit Type

OS:ScheduleTypeLimits,
  {3ef5bf30-f2fd-4130-be61-7104d63c3ee2}, !- Handle
  Fractional,                             !- Name
  0,                                      !- Lower Limit Value
  1,                                      !- Upper Limit Value
  Continuous,                             !- Numeric Type
  Dimensionless;                          !- Unit Type

OS:YearDescription,
  {cad1dbe2-8e8a-49f3-ac12-872d7ab100a6}, !- Handle
  ,                                       !- Calendar Year
  Sunday,                                 !- Day of Week for Start Day
  No;                                     !- Is Leap Year

OS:Schedule:Ruleset,
  {e4e3f752-1614-4b50-8c0a-b01b77eb4dbc}, !- Handle
  ApartmentMidRise HTGSETP_APT_SCH,       !- Name
  {a0b9877b-fef7-4f97-a96d-5a42965d4a77}, !- Schedule Type Limits Name
  {932f994f-a1ab-440d-bd75-12c1e427124a}, !- Default Day Schedule Name
  {e1130cb0-1c3b-4bc0-9a51-986206fbde62}, !- Summer Design Day Schedule Name
  {b47b2de8-196f-45f8-9a75-b8affe04d592}; !- Winter Design Day Schedule Name

OS:Schedule:Day,
  {932f994f-a1ab-440d-bd75-12c1e427124a}, !- Handle
  ApartmentMidRise HTGSETP_APT_SCH_Default, !- Name
  {a0b9877b-fef7-4f97-a96d-5a42965d4a77}, !- Schedule Type Limits Name
  ,                                       !- Interpolate to Timestep
  24,                                     !- Hour 1
  0,                                      !- Minute 1
  21.7;                                   !- Value Until Time 1

OS:Schedule:Day,
  {e2bd0f07-a91a-43c4-b5de-2d8017f394e3}, !- Handle
  ApartmentMidRise HTGSETP_APT_SCH_SmrDsn, !- Name
  {a0b9877b-fef7-4f97-a96d-5a42965d4a77}, !- Schedule Type Limits Name
  ,                                       !- Interpolate to Timestep
  24,                                     !- Hour 1
  0,                                      !- Minute 1
  21.7;                                   !- Value Until Time 1

OS:Schedule:Day,
  {121c2980-b02e-400a-b1f6-79cc10332f2c}, !- Handle
  ApartmentMidRise HTGSETP_APT_SCH_WntrDsn, !- Name
  {a0b9877b-fef7-4f97-a96d-5a42965d4a77}, !- Schedule Type Limits Name
  ,                                       !- Interpolate to Timestep
  24,                                     !- Hour 1
  0,                                      !- Minute 1
  21.7;                                   !- Value Until Time 1

OS:Schedule:Day,
  {e1130cb0-1c3b-4bc0-9a51-986206fbde62}, !- Handle
  ApartmentMidRise HTGSETP_APT_SCH_SmrDsn 1, !- Name
  {a0b9877b-fef7-4f97-a96d-5a42965d4a77}, !- Schedule Type Limits Name
  ,                                       !- Interpolate to Timestep
  24,                                     !- Hour 1
  0,                                      !- Minute 1
  21.7;                                   !- Value Until Time 1

OS:Schedule:Day,
  {b47b2de8-196f-45f8-9a75-b8affe04d592}, !- Handle
  ApartmentMidRise HTGSETP_APT_SCH_WntrDsn 1, !- Name
  {a0b9877b-fef7-4f97-a96d-5a42965d4a77}, !- Schedule Type Limits Name
  ,                                       !- Interpolate to Timestep
  24,                                     !- Hour 1
  0,                                      !- Minute 1
  21.7;                                   !- Value Until Time 1

OS:Schedule:Ruleset,
  {2401433d-3ab6-4278-8c16-750f8e0ffebd}, !- Handle
  ApartmentMidRise OCC_APT_SCH,           !- Name
  {3ef5bf30-f2fd-4130-be61-7104d63c3ee2}, !- Schedule Type Limits Name
  {deb6aca7-a00e-4842-8286-0139c64e6e2d}, !- Default Day Schedule Name
  {54ab6a5f-de46-42d2-8bdd-068e5b6bc045}, !- Summer Design Day Schedule Name
  {c86dca01-85fb-471d-a154-9849e5e75f62}; !- Winter Design Day Schedule Name

OS:Schedule:Day,
  {deb6aca7-a00e-4842-8286-0139c64e6e2d}, !- Handle
  ApartmentMidRise OCC_APT_SCH_Default,   !- Name
  {3ef5bf30-f2fd-4130-be61-7104d63c3ee2}, !- Schedule Type Limits Name
  ,                                       !- Interpolate to Timestep
  7,                                      !- Hour 1
  0,                                      !- Minute 1
  1,                                      !- Value Until Time 1
  8,                                      !- Hour 2
  0,                                      !- Minute 2
  0.85,                                   !- Value Until Time 2
  9,                                      !- Hour 3
  0,                                      !- Minute 3
  0.39,                                   !- Value Until Time 3
  16,                                     !- Hour 4
  0,                                      !- Minute 4
  0.25,                                   !- Value Until Time 4
  17,                                     !- Hour 5
  0,                                      !- Minute 5
  0.3,                                    !- Value Until Time 5
  18,                                     !- Hour 6
  0,                                      !- Minute 6
  0.52,                                   !- Value Until Time 6
  21,                                     !- Hour 7
  0,                                      !- Minute 7
  0.87,                                   !- Value Until Time 7
  24,                                     !- Hour 8
  0,                                      !- Minute 8
  1;                                      !- Value Until Time 8

OS:Schedule:Day,
  {4969e6c9-f74e-42d9-ad57-6421728accab}, !- Handle
  ApartmentMidRise OCC_APT_SCH_SmrDsn,    !- Name
  {3ef5bf30-f2fd-4130-be61-7104d63c3ee2}, !- Schedule Type Limits Name
  ,                                       !- Interpolate to Timestep
  7,                                      !- Hour 1
  0,                                      !- Minute 1
  1,                                      !- Value Until Time 1
  8,                                      !- Hour 2
  0,                                      !- Minute 2
  0.85,                                   !- Value Until Time 2
  9,                                      !- Hour 3
  0,                                      !- Minute 3
  0.39,                                   !- Value Until Time 3
  16,                                     !- Hour 4
  0,                                      !- Minute 4
  0.25,                                   !- Value Until Time 4
  17,                                     !- Hour 5
  0,                                      !- Minute 5
  0.3,                                    !- Value Until Time 5
  18,                                     !- Hour 6
  0,                                      !- Minute 6
  0.52,                                   !- Value Until Time 6
  21,                                     !- Hour 7
  0,                                      !- Minute 7
  0.87,                                   !- Value Until Time 7
  24,                                     !- Hour 8
  0,                                      !- Minute 8
  1;                                      !- Value Until Time 8

OS:Schedule:Day,
  {a1444d9a-b884-49aa-8b8e-e4abb17fce40}, !- Handle
  ApartmentMidRise OCC_APT_SCH_WntrDsn,   !- Name
  {3ef5bf30-f2fd-4130-be61-7104d63c3ee2}, !- Schedule Type Limits Name
  ,                                       !- Interpolate to Timestep
  7,                                      !- Hour 1
  0,                                      !- Minute 1
  1,                                      !- Value Until Time 1
  8,                                      !- Hour 2
  0,                                      !- Minute 2
  0.85,                                   !- Value Until Time 2
  9,                                      !- Hour 3
  0,                                      !- Minute 3
  0.39,                                   !- Value Until Time 3
  16,                                     !- Hour 4
  0,                                      !- Minute 4
  0.25,                                   !- Value Until Time 4
  17,                                     !- Hour 5
  0,                                      !- Minute 5
  0.3,                                    !- Value Until Time 5
  18,                                     !- Hour 6
  0,                                      !- Minute 6
  0.52,                                   !- Value Until Time 6
  21,                                     !- Hour 7
  0,                                      !- Minute 7
  0.87,                                   !- Value Until Time 7
  24,                                     !- Hour 8
  0,                                      !- Minute 8
  1;                                      !- Value Until Time 8

OS:Schedule:Day,
  {54ab6a5f-de46-42d2-8bdd-068e5b6bc045}, !- Handle
  ApartmentMidRise OCC_APT_SCH_SmrDsn 1,  !- Name
  {3ef5bf30-f2fd-4130-be61-7104d63c3ee2}, !- Schedule Type Limits Name
  ,                                       !- Interpolate to Timestep
  7,                                      !- Hour 1
  0,                                      !- Minute 1
  1,                                      !- Value Until Time 1
  8,                                      !- Hour 2
  0,                                      !- Minute 2
  0.85,                                   !- Value Until Time 2
  9,                                      !- Hour 3
  0,                                      !- Minute 3
  0.39,                                   !- Value Until Time 3
  16,                                     !- Hour 4
  0,                                      !- Minute 4
  0.25,                                   !- Value Until Time 4
  17,                                     !- Hour 5
  0,                                      !- Minute 5
  0.3,                                    !- Value Until Time 5
  18,                                     !- Hour 6
  0,                                      !- Minute 6
  0.52,                                   !- Value Until Time 6
  21,                                     !- Hour 7
  0,                                      !- Minute 7
  0.87,                                   !- Value Until Time 7
  24,                                     !- Hour 8
  0,                                      !- Minute 8
  1;                                      !- Value Until Time 8

OS:Schedule:Day,
  {c86dca01-85fb-471d-a154-9849e5e75f62}, !- Handle
  ApartmentMidRise OCC_APT_SCH_WntrDsn 1, !- Name
  {3ef5bf30-f2fd-4130-be61-7104d63c3ee2}, !- Schedule Type Limits Name
  ,                                       !- Interpolate to Timestep
  7,                                      !- Hour 1
  0,                                      !- Minute 1
  1,                                      !- Value Until Time 1
  8,                                      !- Hour 2
  0,                                      !- Minute 2
  0.85,                                   !- Value Until Time 2
  9,                                      !- Hour 3
  0,                                      !- Minute 3
  0.39,                                   !- Value Until Time 3
  16,                                     !- Hour 4
  0,                                      !- Minute 4
  0.25,                                   !- Value Until Time 4
  17,                                     !- Hour 5
  0,                                      !- Minute 5
  0.3,                                    !- Value Until Time 5
  18,                                     !- Hour 6
  0,                                      !- Minute 6
  0.52,                                   !- Value Until Time 6
  21,                                     !- Hour 7
  0,                                      !- Minute 7
  0.87,                                   !- Value Until Time 7
  24,                                     !- Hour 8
  0,                                      !- Minute 8
  1;                                      !- Value Until Time 8

OS:Schedule:Ruleset,
  {e8bd4db2-b5f7-4682-9d29-b41618077624}, !- Handle
  ApartmentMidRise EQP_APT_SCH,           !- Name
  {3ef5bf30-f2fd-4130-be61-7104d63c3ee2}, !- Schedule Type Limits Name
  {abb513cb-6fd2-474a-a88c-05a2c66cfed8}, !- Default Day Schedule Name
  {acb8fb30-cc21-44a3-bf7d-44bf27fe8b5c}, !- Summer Design Day Schedule Name
  {e422b5bf-7acc-48d6-af31-f03a95ad2410}; !- Winter Design Day Schedule Name

OS:Schedule:Day,
  {abb513cb-6fd2-474a-a88c-05a2c66cfed8}, !- Handle
  ApartmentMidRise EQP_APT_SCH_Default,   !- Name
  {3ef5bf30-f2fd-4130-be61-7104d63c3ee2}, !- Schedule Type Limits Name
  ,                                       !- Interpolate to Timestep
  1,                                      !- Hour 1
  0,                                      !- Minute 1
  0.45,                                   !- Value Until Time 1
  2,                                      !- Hour 2
  0,                                      !- Minute 2
  0.41,                                   !- Value Until Time 2
  3,                                      !- Hour 3
  0,                                      !- Minute 3
  0.39,                                   !- Value Until Time 3
  5,                                      !- Hour 4
  0,                                      !- Minute 4
  0.38,                                   !- Value Until Time 4
  6,                                      !- Hour 5
  0,                                      !- Minute 5
  0.43,                                   !- Value Until Time 5
  7,                                      !- Hour 6
  0,                                      !- Minute 6
  0.54,                                   !- Value Until Time 6
  8,                                      !- Hour 7
  0,                                      !- Minute 7
  0.65,                                   !- Value Until Time 7
  9,                                      !- Hour 8
  0,                                      !- Minute 8
  0.66,                                   !- Value Until Time 8
  10,                                     !- Hour 9
  0,                                      !- Minute 9
  0.67,                                   !- Value Until Time 9
  11,                                     !- Hour 10
  0,                                      !- Minute 10
  0.69,                                   !- Value Until Time 10
  12,                                     !- Hour 11
  0,                                      !- Minute 11
  0.7,                                    !- Value Until Time 11
  13,                                     !- Hour 12
  0,                                      !- Minute 12
  0.69,                                   !- Value Until Time 12
  14,                                     !- Hour 13
  0,                                      !- Minute 13
  0.66,                                   !- Value Until Time 13
  15,                                     !- Hour 14
  0,                                      !- Minute 14
  0.65,                                   !- Value Until Time 14
  16,                                     !- Hour 15
  0,                                      !- Minute 15
  0.68,                                   !- Value Until Time 15
  17,                                     !- Hour 16
  0,                                      !- Minute 16
  0.8,                                    !- Value Until Time 16
  19,                                     !- Hour 17
  0,                                      !- Minute 17
  1,                                      !- Value Until Time 17
  20,                                     !- Hour 18
  0,                                      !- Minute 18
  0.93,                                   !- Value Until Time 18
  21,                                     !- Hour 19
  0,                                      !- Minute 19
  0.89,                                   !- Value Until Time 19
  22,                                     !- Hour 20
  0,                                      !- Minute 20
  0.85,                                   !- Value Until Time 20
  23,                                     !- Hour 21
  0,                                      !- Minute 21
  0.71,                                   !- Value Until Time 21
  24,                                     !- Hour 22
  0,                                      !- Minute 22
  0.58;                                   !- Value Until Time 22

OS:Schedule:Day,
  {8c15961d-b065-49b1-9f92-26a49f4ad6ba}, !- Handle
  ApartmentMidRise EQP_APT_SCH_SmrDsn,    !- Name
  {3ef5bf30-f2fd-4130-be61-7104d63c3ee2}, !- Schedule Type Limits Name
  ,                                       !- Interpolate to Timestep
  1,                                      !- Hour 1
  0,                                      !- Minute 1
  0.45,                                   !- Value Until Time 1
  2,                                      !- Hour 2
  0,                                      !- Minute 2
  0.41,                                   !- Value Until Time 2
  3,                                      !- Hour 3
  0,                                      !- Minute 3
  0.39,                                   !- Value Until Time 3
  5,                                      !- Hour 4
  0,                                      !- Minute 4
  0.38,                                   !- Value Until Time 4
  6,                                      !- Hour 5
  0,                                      !- Minute 5
  0.43,                                   !- Value Until Time 5
  7,                                      !- Hour 6
  0,                                      !- Minute 6
  0.54,                                   !- Value Until Time 6
  8,                                      !- Hour 7
  0,                                      !- Minute 7
  0.65,                                   !- Value Until Time 7
  9,                                      !- Hour 8
  0,                                      !- Minute 8
  0.66,                                   !- Value Until Time 8
  10,                                     !- Hour 9
  0,                                      !- Minute 9
  0.67,                                   !- Value Until Time 9
  11,                                     !- Hour 10
  0,                                      !- Minute 10
  0.69,                                   !- Value Until Time 10
  12,                                     !- Hour 11
  0,                                      !- Minute 11
  0.7,                                    !- Value Until Time 11
  13,                                     !- Hour 12
  0,                                      !- Minute 12
  0.69,                                   !- Value Until Time 12
  14,                                     !- Hour 13
  0,                                      !- Minute 13
  0.66,                                   !- Value Until Time 13
  15,                                     !- Hour 14
  0,                                      !- Minute 14
  0.65,                                   !- Value Until Time 14
  16,                                     !- Hour 15
  0,                                      !- Minute 15
  0.68,                                   !- Value Until Time 15
  17,                                     !- Hour 16
  0,                                      !- Minute 16
  0.8,                                    !- Value Until Time 16
  19,                                     !- Hour 17
  0,                                      !- Minute 17
  1,                                      !- Value Until Time 17
  20,                                     !- Hour 18
  0,                                      !- Minute 18
  0.93,                                   !- Value Until Time 18
  21,                                     !- Hour 19
  0,                                      !- Minute 19
  0.89,                                   !- Value Until Time 19
  22,                                     !- Hour 20
  0,                                      !- Minute 20
  0.85,                                   !- Value Until Time 20
  23,                                     !- Hour 21
  0,                                      !- Minute 21
  0.71,                                   !- Value Until Time 21
  24,                                     !- Hour 22
  0,                                      !- Minute 22
  0.58;                                   !- Value Until Time 22

OS:Schedule:Day,
  {4fed9221-3fc8-4676-bbdf-906dfe37ff98}, !- Handle
  ApartmentMidRise EQP_APT_SCH_WntrDsn,   !- Name
  {3ef5bf30-f2fd-4130-be61-7104d63c3ee2}, !- Schedule Type Limits Name
  ,                                       !- Interpolate to Timestep
  1,                                      !- Hour 1
  0,                                      !- Minute 1
  0.45,                                   !- Value Until Time 1
  2,                                      !- Hour 2
  0,                                      !- Minute 2
  0.41,                                   !- Value Until Time 2
  3,                                      !- Hour 3
  0,                                      !- Minute 3
  0.39,                                   !- Value Until Time 3
  5,                                      !- Hour 4
  0,                                      !- Minute 4
  0.38,                                   !- Value Until Time 4
  6,                                      !- Hour 5
  0,                                      !- Minute 5
  0.43,                                   !- Value Until Time 5
  7,                                      !- Hour 6
  0,                                      !- Minute 6
  0.54,                                   !- Value Until Time 6
  8,                                      !- Hour 7
  0,                                      !- Minute 7
  0.65,                                   !- Value Until Time 7
  9,                                      !- Hour 8
  0,                                      !- Minute 8
  0.66,                                   !- Value Until Time 8
  10,                                     !- Hour 9
  0,                                      !- Minute 9
  0.67,                                   !- Value Until Time 9
  11,                                     !- Hour 10
  0,                                      !- Minute 10
  0.69,                                   !- Value Until Time 10
  12,                                     !- Hour 11
  0,                                      !- Minute 11
  0.7,                                    !- Value Until Time 11
  13,                                     !- Hour 12
  0,                                      !- Minute 12
  0.69,                                   !- Value Until Time 12
  14,                                     !- Hour 13
  0,                                      !- Minute 13
  0.66,                                   !- Value Until Time 13
  15,                                     !- Hour 14
  0,                                      !- Minute 14
  0.65,                                   !- Value Until Time 14
  16,                                     !- Hour 15
  0,                                      !- Minute 15
  0.68,                                   !- Value Until Time 15
  17,                                     !- Hour 16