
OS:Version,
  {7ff65fc4-d9a7-4143-b9e5-4d6494f7d996}, !- Handle
  3.3.0;                                  !- Version Identifier

OS:Building,
  {e1a1a886-d473-48b3-a38e-3f8fb9bf9877}, !- Handle
  Building 1,                             !- Name
  ,                                       !- Building Sector Type
  270,                                    !- North Axis {deg}
  ,                                       !- Nominal Floor to Floor Height {m}
  ,                                       !- Space Type Name
  {34c88326-5ff4-4615-84dd-04e69cc6c4d7}, !- Default Construction Set Name
  ,                                       !- Default Schedule Set Name
  ,                                       !- Standards Number of Stories
  ,                                       !- Standards Number of Above Ground Stories
  ,                                       !- Standards Template
  MediumOffice;                           !- Standards Building Type

OS:Facility,
  {18ce5f40-ec30-4ccd-b7d1-d6ab8f52cc6d}; !- Handle

OS:Site,
  {ebdcd46a-4fb2-477e-a186-fa2414cd0629}, !- Handle
  Site 1,                                 !- Name
  ,                                       !- Latitude {deg}
  ,                                       !- Longitude {deg}
  ,                                       !- Time Zone {hr}
  ,                                       !- Elevation {m}
  City;                                   !- Terrain

OS:SimulationControl,
  {24d83a6a-5a06-4cbf-983c-46ce35add44a}, !- Handle
  Yes,                                    !- Do Zone Sizing Calculation
  Yes,                                    !- Do System Sizing Calculation
  Yes,                                    !- Do Plant Sizing Calculation
  No,                                     !- Run Simulation for Sizing Periods
  Yes,                                    !- Run Simulation for Weather File Run Periods
  ,                                       !- Loads Convergence Tolerance Value {W}
  ,                                       !- Temperature Convergence Tolerance Value {deltaC}
  FullExteriorWithReflections;            !- Solar Distribution

OS:Sizing:Parameters,
  {27f2dc0e-90c3-4639-9b06-9c908d55e84e}, !- Handle
  1.25,                                   !- Heating Sizing Factor
  1.15;                                   !- Cooling Sizing Factor

OS:Timestep,
  {32875131-2dc2-45a0-b61b-0bf3bd4316f0}, !- Handle
  6;                                      !- Number of Timesteps per Hour

OS:ShadowCalculation,
  {3bb5833c-90ba-4df6-9d8b-2c6d69502ae7}, !- Handle
  PolygonClipping,                        !- Shading Calculation Method
  Periodic,                               !- Shading Calculation Update Frequency Method
  30,                                     !- Shading Calculation Update Frequency
  15000,                                  !- Maximum Figures in Shadow Overlap Calculations
  ,                                       !- Polygon Clipping Algorithm
  512,                                    !- Pixel Counting Resolution
  ,                                       !- Sky Diffuse Modeling Algorithm
  No,                                     !- Output External Shading Calculation Results
  No,                                     !- Disable Self-Shading Within Shading Zone Groups
  No;                                     !- Disable Self-Shading From Shading Zone Groups to Other Zones

OS:HeatBalanceAlgorithm,
  {7e639109-2169-4272-a07c-fc0c2aeade89}, !- Handle
  ConductionTransferFunction,             !- Algorithm
  200;                                    !- Surface Temperature Upper Limit {C}

OS:RunPeriod,
  {c0286d20-955a-488e-97c5-e8cfd2132a14}, !- Handle
  Run Period 1,                           !- Name
  1,                                      !- Begin Month
  1,                                      !- Begin Day of Month
  12,                                     !- End Month
  31,                                     !- End Day of Month
  ,                                       !- Use Weather File Holidays and Special Days
  ,                                       !- Use Weather File Daylight Saving Period
  ,                                       !- Apply Weekend Holiday Rule
  ,                                       !- Use Weather File Rain Indicators
  ,                                       !- Use Weather File Snow Indicators
  ;                                       !- Number of Times Runperiod to be Repeated

OS:LifeCycleCost:Parameters,
  {00cf3379-e005-471d-af0d-c724e087f44d}, !- Handle
  ,                                       !- Analysis Type
  ,                                       !- Discounting Convention
  ,                                       !- Inflation Approach
  ,                                       !- Real Discount Rate
  ,                                       !- Nominal Discount Rate
  ,                                       !- Inflation
  ,                                       !- Base Date Month
  ,                                       !- Base Date Year
  ,                                       !- Service Date Month
  ,                                       !- Service Date Year
  ;                                       !- Length of Study Period in Years

OS:WeatherFile,
  {c0bd60cb-3df6-480e-8c63-0c6cc37ecb80}, !- Handle
  Seattle Seattle Tacoma Intl A,          !- City
  WA,                                     !- State Province Region
  USA,                                    !- Country
  TMY3,                                   !- Data Source
  727930,                                 !- WMO Number
  47.47,                                  !- Latitude {deg}
  -122.32,                                !- Longitude {deg}
  -8,                                     !- Time Zone {hr}
  122,                                    !- Elevation {m}
  C:/Users/papep/Documents/GitHub/msdc-thesis/tool/data/USA_WA_Seattle-Tacoma.Intl.AP.727930_TMY3.epw, !- Url
  92912389,                               !- Checksum
  ,                                       !- Start Date Actual Year
  Sunday;                                 !- Start Day of Week

OS:ScheduleTypeLimits,
  {14b3d848-01c3-408a-95eb-0a88eeb40185}, !- Handle
  Temperature,                            !- Name
  -273.15,                                !- Lower Limit Value
  ,                                       !- Upper Limit Value
  Continuous,                             !- Numeric Type
  Temperature;                            !- Unit Type

OS:ScheduleTypeLimits,
  {b9ba446b-6902-445a-a4ec-68d39a9f586f}, !- Handle
  Activity Level,                         !- Name
  0,                                      !- Lower Limit Value
  ,                                       !- Upper Limit Value
  Continuous,                             !- Numeric Type
  ActivityLevel;                          !- Unit Type

OS:ScheduleTypeLimits,
  {cbc43bc7-6f37-4aa7-a426-e5114d8c898d}, !- Handle
  Fractional,                             !- Name
  0,                                      !- Lower Limit Value
  1,                                      !- Upper Limit Value
  Continuous,                             !- Numeric Type
  Dimensionless;                          !- Unit Type

OS:YearDescription,
  {5e757342-d03c-497e-ba30-c2e5e28a13a4}, !- Handle
  ,                                       !- Calendar Year
  Sunday,                                 !- Day of Week for Start Day
  No;                                     !- Is Leap Year

OS:Schedule:Ruleset,
  {bca9ca1c-c47e-48ed-8914-abbd94f4152a}, !- Handle
  ApartmentMidRise HTGSETP_APT_SCH,       !- Name
  {14b3d848-01c3-408a-95eb-0a88eeb40185}, !- Schedule Type Limits Name
  {c381b52f-5d76-4dcc-878f-cc3a0f260895}, !- Default Day Schedule Name
  {b2732375-ea9f-408a-80b2-b760b3e8928b}, !- Summer Design Day Schedule Name
  {56fc8824-f1a0-41cc-b828-ebb61cf3b54b}; !- Winter Design Day Schedule Name

OS:Schedule:Day,
  {c381b52f-5d76-4dcc-878f-cc3a0f260895}, !- Handle
  ApartmentMidRise HTGSETP_APT_SCH_Default, !- Name
  {14b3d848-01c3-408a-95eb-0a88eeb40185}, !- Schedule Type Limits Name
  ,                                       !- Interpolate to Timestep
  24,                                     !- Hour 1
  0,                                      !- Minute 1
  21.7;                                   !- Value Until Time 1

OS:Schedule:Day,
  {2bb0aedc-6581-4b49-88cf-1a0832b5f27a}, !- Handle
  ApartmentMidRise HTGSETP_APT_SCH_SmrDsn, !- Name
  {14b3d848-01c3-408a-95eb-0a88eeb40185}, !- Schedule Type Limits Name
  ,                                       !- Interpolate to Timestep
  24,                                     !- Hour 1
  0,                                      !- Minute 1
  21.7;                                   !- Value Until Time 1

OS:Schedule:Day,
  {b2c3b396-96ae-47cd-9ad6-049261a4b81c}, !- Handle
  ApartmentMidRise HTGSETP_APT_SCH_WntrDsn, !- Name
  {14b3d848-01c3-408a-95eb-0a88eeb40185}, !- Schedule Type Limits Name
  ,                                       !- Interpolate to Timestep
  24,                                     !- Hour 1
  0,                                      !- Minute 1
  21.7;                                   !- Value Until Time 1

OS:Schedule:Day,
  {b2732375-ea9f-408a-80b2-b760b3e8928b}, !- Handle
  ApartmentMidRise HTGSETP_APT_SCH_SmrDsn 1, !- Name
  {14b3d848-01c3-408a-95eb-0a88eeb40185}, !- Schedule Type Limits Name
  ,                                       !- Interpolate to Timestep
  24,                                     !- Hour 1
  0,                                      !- Minute 1
  21.7;                                   !- Value Until Time 1

OS:Schedule:Day,
  {56fc8824-f1a0-41cc-b828-ebb61cf3b54b}, !- Handle
  ApartmentMidRise HTGSETP_APT_SCH_WntrDsn 1, !- Name
  {14b3d848-01c3-408a-95eb-0a88eeb40185}, !- Schedule Type Limits Name
  ,                                       !- Interpolate to Timestep
  24,                                     !- Hour 1
  0,                                      !- Minute 1
  21.7;                                   !- Value Until Time 1

OS:Schedule:Ruleset,
  {6debecfb-dde7-4cb5-ac10-a03348553160}, !- Handle
  ApartmentMidRise OCC_APT_SCH,           !- Name
  {cbc43bc7-6f37-4aa7-a426-e5114d8c898d}, !- Schedule Type Limits Name
  {b3f79544-4e9a-4571-a2bd-a8b8d5d51531}, !- Default Day Schedule Name
  {de3393ac-6e0d-4494-b611-066a16b27291}, !- Summer Design Day Schedule Name
  {37e71e2a-4fdf-452c-b661-b850e512a535}; !- Winter Design Day Schedule Name

OS:Schedule:Day,
  {b3f79544-4e9a-4571-a2bd-a8b8d5d51531}, !- Handle
  ApartmentMidRise OCC_APT_SCH_Default,   !- Name
  {cbc43bc7-6f37-4aa7-a426-e5114d8c898d}, !- Schedule Type Limits Name
  ,                                       !- Interpolate to Timestep
  7,                                      !- Hour 1
  0,                                      !- Minute 1
  1,                                      !- Value Until Time 1
  8,                                      !- Hour 2
  0,                                      !- Minute 2
  0.85,                                   !- Value Until Time 2
  9,                                      !- Hour 3
  0,                                      !- Minute 3
  0.39,                                   !- Value Until Time 3
  16,                                     !- Hour 4
  0,                                      !- Minute 4
  0.25,                                   !- Value Until Time 4
  17,                                     !- Hour 5
  0,                                      !- Minute 5
  0.3,                                    !- Value Until Time 5
  18,                                     !- Hour 6
  0,                                      !- Minute 6
  0.52,                                   !- Value Until Time 6
  21,                                     !- Hour 7
  0,                                      !- Minute 7
  0.87,                                   !- Value Until Time 7
  24,                                     !- Hour 8
  0,                                      !- Minute 8
  1;                                      !- Value Until Time 8

OS:Schedule:Day,
  {21f6e035-4960-4a07-a0b7-a2afd430634e}, !- Handle
  ApartmentMidRise OCC_APT_SCH_SmrDsn,    !- Name
  {cbc43bc7-6f37-4aa7-a426-e5114d8c898d}, !- Schedule Type Limits Name
  ,                                       !- Interpolate to Timestep
  7,                                      !- Hour 1
  0,                                      !- Minute 1
  1,                                      !- Value Until Time 1
  8,                                      !- Hour 2
  0,                                      !- Minute 2
  0.85,                                   !- Value Until Time 2
  9,                                      !- Hour 3
  0,                                      !- Minute 3
  0.39,                                   !- Value Until Time 3
  16,                                     !- Hour 4
  0,                                      !- Minute 4
  0.25,                                   !- Value Until Time 4
  17,                                     !- Hour 5
  0,                                      !- Minute 5
  0.3,                                    !- Value Until Time 5
  18,                                     !- Hour 6
  0,                                      !- Minute 6
  0.52,                                   !- Value Until Time 6
  21,                                     !- Hour 7
  0,                                      !- Minute 7
  0.87,                                   !- Value Until Time 7
  24,                                     !- Hour 8
  0,                                      !- Minute 8
  1;                                      !- Value Until Time 8

OS:Schedule:Day,
  {317c6e8d-9203-4554-8019-216372a0eda0}, !- Handle
  ApartmentMidRise OCC_APT_SCH_WntrDsn,   !- Name
  {cbc43bc7-6f37-4aa7-a426-e5114d8c898d}, !- Schedule Type Limits Name
  ,                                       !- Interpolate to Timestep
  7,                                      !- Hour 1
  0,                                      !- Minute 1
  1,                                      !- Value Until Time 1
  8,                                      !- Hour 2
  0,                                      !- Minute 2
  0.85,                                   !- Value Until Time 2
  9,                                      !- Hour 3
  0,                                      !- Minute 3
  0.39,                                   !- Value Until Time 3
  16,                                     !- Hour 4
  0,                                      !- Minute 4
  0.25,                                   !- Value Until Time 4
  17,                                     !- Hour 5
  0,                                      !- Minute 5
  0.3,                                    !- Value Until Time 5
  18,                                     !- Hour 6
  0,                                      !- Minute 6
  0.52,                                   !- Value Until Time 6
  21,                                     !- Hour 7
  0,                                      !- Minute 7
  0.87,                                   !- Value Until Time 7
  24,                                     !- Hour 8
  0,                                      !- Minute 8
  1;                                      !- Value Until Time 8

OS:Schedule:Day,
  {de3393ac-6e0d-4494-b611-066a16b27291}, !- Handle
  ApartmentMidRise OCC_APT_SCH_SmrDsn 1,  !- Name
  {cbc43bc7-6f37-4aa7-a426-e5114d8c898d}, !- Schedule Type Limits Name
  ,                                       !- Interpolate to Timestep
  7,                                      !- Hour 1
  0,                                      !- Minute 1
  1,                                      !- Value Until Time 1
  8,                                      !- Hour 2
  0,                                      !- Minute 2
  0.85,                                   !- Value Until Time 2
  9,                                      !- Hour 3
  0,                                      !- Minute 3
  0.39,                                   !- Value Until Time 3
  16,                                     !- Hour 4
  0,                                      !- Minute 4
  0.25,                                   !- Value Until Time 4
  17,                                     !- Hour 5
  0,                                      !- Minute 5
  0.3,                                    !- Value Until Time 5
  18,                                     !- Hour 6
  0,                                      !- Minute 6
  0.52,                                   !- Value Until Time 6
  21,                                     !- Hour 7
  0,                                      !- Minute 7
  0.87,                                   !- Value Until Time 7
  24,                                     !- Hour 8
  0,                                      !- Minute 8
  1;                                      !- Value Until Time 8

OS:Schedule:Day,
  {37e71e2a-4fdf-452c-b661-b850e512a535}, !- Handle
  ApartmentMidRise OCC_APT_SCH_WntrDsn 1, !- Name
  {cbc43bc7-6f37-4aa7-a426-e5114d8c898d}, !- Schedule Type Limits Name
  ,                                       !- Interpolate to Timestep
  7,                                      !- Hour 1
  0,                                      !- Minute 1
  1,                                      !- Value Until Time 1
  8,                                      !- Hour 2
  0,                                      !- Minute 2
  0.85,                                   !- Value Until Time 2
  9,                                      !- Hour 3
  0,                                      !- Minute 3
  0.39,                                   !- Value Until Time 3
  16,                                     !- Hour 4
  0,                                      !- Minute 4
  0.25,                                   !- Value Until Time 4
  17,                                     !- Hour 5
  0,                                      !- Minute 5
  0.3,                                    !- Value Until Time 5
  18,                                     !- Hour 6
  0,                                      !- Minute 6
  0.52,                                   !- Value Until Time 6
  21,                                     !- Hour 7
  0,                                      !- Minute 7
  0.87,                                   !- Value Until Time 7
  24,                                     !- Hour 8
  0,                                      !- Minute 8
  1;                                      !- Value Until Time 8

OS:Schedule:Ruleset,
  {4d5ecb3f-a7c1-4321-a820-70f9e61f4a0d}, !- Handle
  ApartmentMidRise EQP_APT_SCH,           !- Name
  {cbc43bc7-6f37-4aa7-a426-e5114d8c898d}, !- Schedule Type Limits Name
  {847ae70b-e3ad-43e6-8dfb-121b35e47939}, !- Default Day Schedule Name
  {53448fa6-4065-41db-9bea-0610e9809587}, !- Summer Design Day Schedule Name
  {09c65d61-82f6-4654-bd71-1fc24024b6aa}; !- Winter Design Day Schedule Name

OS:Schedule:Day,
  {847ae70b-e3ad-43e6-8dfb-121b35e47939}, !- Handle
  ApartmentMidRise EQP_APT_SCH_Default,   !- Name
  {cbc43bc7-6f37-4aa7-a426-e5114d8c898d}, !- Schedule Type Limits Name
  ,                                       !- Interpolate to Timestep
  1,                                      !- Hour 1
  0,                                      !- Minute 1
  0.45,                                   !- Value Until Time 1
  2,                                      !- Hour 2
  0,                                      !- Minute 2
  0.41,                                   !- Value Until Time 2
  3,                                      !- Hour 3
  0,                                      !- Minute 3
  0.39,                                   !- Value Until Time 3
  5,                                      !- Hour 4
  0,                                      !- Minute 4
  0.38,                                   !- Value Until Time 4
  6,                                      !- Hour 5
  0,                                      !- Minute 5
  0.43,                                   !- Value Until Time 5
  7,                                      !- Hour 6
  0,                                      !- Minute 6
  0.54,                                   !- Value Until Time 6
  8,                                      !- Hour 7
  0,                                      !- Minute 7
  0.65,                                   !- Value Until Time 7
  9,                                      !- Hour 8
  0,                                      !- Minute 8
  0.66,                                   !- Value Until Time 8
  10,                                     !- Hour 9
  0,                                      !- Minute 9
  0.67,                                   !- Value Until Time 9
  11,                                     !- Hour 10
  0,                                      !- Minute 10
  0.69,                                   !- Value Until Time 10
  12,                                     !- Hour 11
  0,                                      !- Minute 11
  0.7,                                    !- Value Until Time 11
  13,                                     !- Hour 12
  0,                                      !- Minute 12
  0.69,                                   !- Value Until Time 12
  14,                                     !- Hour 13
  0,                                      !- Minute 13
  0.66,                                   !- Value Until Time 13
  15,                                     !- Hour 14
  0,                                      !- Minute 14
  0.65,                                   !- Value Until Time 14
  16,                                     !- Hour 15
  0,                                      !- Minute 15
  0.68,                                   !- Value Until Time 15
  17,                                     !- Hour 16
  0,                                      !- Minute 16
  0.8,                                    !- Value Until Time 16
  19,                                     !- Hour 17
  0,                                      !- Minute 17
  1,                                      !- Value Until Time 17
  20,                                     !- Hour 18
  0,                                      !- Minute 18
  0.93,                                   !- Value Until Time 18
  21,                                     !- Hour 19
  0,                                      !- Minute 19
  0.89,                                   !- Value Until Time 19
  22,                                     !- Hour 20
  0,                                      !- Minute 20
  0.85,                                   !- Value Until Time 20
  23,                                     !- Hour 21
  0,                                      !- Minute 21
  0.71,                                   !- Value Until Time 21
  24,                                     !- Hour 22
  0,                                      !- Minute 22
  0.58;                                   !- Value Until Time 22

OS:Schedule:Day,
  {6f07616e-3d09-4e8f-8f72-0e6cb0686856}, !- Handle
  ApartmentMidRise EQP_APT_SCH_SmrDsn,    !- Name
  {cbc43bc7-6f37-4aa7-a426-e5114d8c898d}, !- Schedule Type Limits Name
  ,                                       !- Interpolate to Timestep
  1,                                      !- Hour 1
  0,                                      !- Minute 1
  0.45,                                   !- Value Until Time 1
  2,                                      !- Hour 2
  0,                                      !- Minute 2
  0.41,                                   !- Value Until Time 2
  3,                                      !- Hour 3
  0,                                      !- Minute 3
  0.39,                                   !- Value Until Time 3
  5,                                      !- Hour 4
  0,                                      !- Minute 4
  0.38,                                   !- Value Until Time 4
  6,                                      !- Hour 5
  0,                                      !- Minute 5
  0.43,                                   !- Value Until Time 5
  7,                                      !- Hour 6
  0,                                      !- Minute 6
  0.54,                                   !- Value Until Time 6
  8,                                      !- Hour 7
  0,                                      !- Minute 7
  0.65,                                   !- Value Until Time 7
  9,                                      !- Hour 8
  0,                                      !- Minute 8
  0.66,                                   !- Value Until Time 8
  10,                                     !- Hour 9
  0,                                      !- Minute 9
  0.67,                                   !- Value Until Time 9
  11,                                     !- Hour 10
  0,                                      !- Minute 10
  0.69,                                   !- Value Until Time 10
  12,                                     !- Hour 11
  0,                                      !- Minute 11
  0.7,                                    !- Value Until Time 11
  13,                                     !- Hour 12
  0,                                      !- Minute 12
  0.69,                                   !- Value Until Time 12
  14,                                     !- Hour 13
  0,                                      !- Minute 13
  0.66,                                   !- Value Until Time 13
  15,                                     !- Hour 14
  0,                                      !- Minute 14
  0.65,                                   !- Value Until Time 14
  16,                                     !- Hour 15
  0,                                      !- Minute 15
  0.68,                                   !- Value Until Time 15
  17,                                     !- Hour 16
  0,                                      !- Minute 16
  0.8,                                    !- Value Until Time 16
  19,                                     !- Hour 17
  0,                                      !- Minute 17
  1,                                      !- Value Until Time 17
  20,                                     !- Hour 18
  0,                                      !- Minute 18
  0.93,                                   !- Value Until Time 18
  21,                                     !- Hour 19
  0,                                      !- Minute 19
  0.89,                                   !- Value Until Time 19
  22,                                     !- Hour 20
  0,                                      !- Minute 20
  0.85,                                   !- Value Until Time 20
  23,                                     !- Hour 21
  0,                                      !- Minute 21
  0.71,                                   !- Value Until Time 21
  24,                                     !- Hour 22
  0,                                      !- Minute 22
  0.58;                                   !- Value Until Time 22

OS:Schedule:Day,
  {b1a7d1ab-9d8c-4910-b79e-51910eb5a18d}, !- Handle
  ApartmentMidRise EQP_APT_SCH_WntrDsn,   !- Name
  {cbc43bc7-6f37-4aa7-a426-e5114d8c898d}, !- Schedule Type Limits Name
  ,                                       !- Interpolate to Timestep
  1,                                      !- Hour 1
  0,                                      !- Minute 1
  0.45,                                   !- Value Until Time 1
  2,                                      !- Hour 2
  0,                                      !- Minute 2
  0.41,                                   !- Value Until Time 2
  3,                                      !- Hour 3
  0,                                      !- Minute 3
  0.39,                                   !- Value Until Time 3
  5,                                      !- Hour 4
  0,                                      !- Minute 4
  0.38,                                   !- Value Until Time 4
  6,                                      !- Hour 5
  0,                                      !- Minute 5
  0.43,                                   !- Value Until Time 5
  7,                                      !- Hour 6
  0,                                      !- Minute 6
  0.54,                                   !- Value Until Time 6
  8,                                      !- Hour 7
  0,                                      !- Minute 7
  0.65,                                   !- Value Until Time 7
  9,                                      !- Hour 8
  0,                                      !- Minute 8
  0.66,                                   !- Value Until Time 8
  10,                                     !- Hour 9
  0,                                      !- Minute 9
  0.67,                                   !- Value Until Time 9
  11,                                     !- Hour 10
  0,                                      !- Minute 10
  0.69,                                   !- Value Until Time 10
  12,                                     !- Hour 11
  0,                                      !- Minute 11
  0.7,                                    !- Value Until Time 11
  13,                                     !- Hour 12
  0,                                      !- Minute 12
  0.69,                                   !- Value Until Time 12
  14,                                     !- Hour 13
  0,                                      !- Minute 13
  0.66,                                   !- Value Until Time 13
  15,                                     !- Hour 14
  0,                                      !- Minute 14
  0.65,                                   !- Value Until Time 14
  16,                                     !- Hour 15
  0,                                      !- Minute 15
  0.68,                                   !- Value Until Time 15
  17,                                     !- Hour 16